# Name file for MODPATH 7, generated by Flopy version 3.9.3.
MPBAS      Hyporheic_mp_forward.mpbas
GRBDIS     ..\gwf_workspace\gwf_model.dis.grb
TDIS       ..\gwf_workspace\Hyporheic.tdis
HEAD       ..\gwf_workspace\gwf_model.hds
BUDGET     ..\gwf_workspace\gwf_model.cbb
