# MPSIM package for MODPATH 7 generated by Flopy 3.9.3
Hyporheic_mp_forward.mpnam
Hyporheic_mp_forward.mplst
4 1 2 2 0 0
Hyporheic_mp_forward.mpend
Hyporheic_mp_forward.mppth
Hyporheic_mp_forward.timeseries
0
1
0
2
1
100 0.01
1
1
1
PG1
1
0.0
INTERNAL
1
1
319 0
         1        66       134             0.5             0.5               1               0         0
         1        66       135             0.5             0.5               1               0         0
         1        66       136             0.5             0.5               1               0         0
         1        66       137             0.5             0.5               1               0         0
         1        67       133             0.5             0.5               1               0         0
         1        67       134             0.5             0.5               1               0         0
         1        67       135             0.5             0.5               1               0         0
         1        67       136             0.5             0.5               1               0         0
         1        67       137             0.5             0.5               1               0         0
         1        67       138             0.5             0.5               1               0         0
         1        68       132             0.5             0.5               1               0         0
         1        68       133             0.5             0.5               1               0         0
         1        68       134             0.5             0.5               1               0         0
         1        68       135             0.5             0.5               1               0         0
         1        68       136             0.5             0.5               1               0         0
         1        69       124             0.5             0.5               1               0         0
         1        69       125             0.5             0.5               1               0         0
         1        69       126             0.5             0.5               1               0         0
         1        69       131             0.5             0.5               1               0         0
         1        69       132             0.5             0.5               1               0         0
         1        69       133             0.5             0.5               1               0         0
         1        69       134             0.5             0.5               1               0         0
         1        70       123             0.5             0.5               1               0         0
         1        70       124             0.5             0.5               1               0         0
         1        70       125             0.5             0.5               1               0         0
         1        70       126             0.5             0.5               1               0         0
         1        70       127             0.5             0.5               1               0         0
         1        70       131             0.5             0.5               1               0         0
         1        70       132             0.5             0.5               1               0         0
         1        70       133             0.5             0.5               1               0         0
         1        71       123             0.5             0.5               1               0         0
         1        71       124             0.5             0.5               1               0         0
         1        71       125             0.5             0.5               1               0         0
         1        71       126             0.5             0.5               1               0         0
         1        71       127             0.5             0.5               1               0         0
         1        71       130             0.5             0.5               1               0         0
         1        71       131             0.5             0.5               1               0         0
         1        72       122             0.5             0.5               1               0         0
         1        72       123             0.5             0.5               1               0         0
         1        72       124             0.5             0.5               1               0         0
         1        72       125             0.5             0.5               1               0         0
         1        72       126             0.5             0.5               1               0         0
         1        72       127             0.5             0.5               1               0         0
         1        72       128             0.5             0.5               1               0         0
         1        72       129             0.5             0.5               1               0         0
         1        72       130             0.5             0.5               1               0         0
         1        73       122             0.5             0.5               1               0         0
         1        73       123             0.5             0.5               1               0         0
         1        73       124             0.5             0.5               1               0         0
         1        73       125             0.5             0.5               1               0         0
         1        73       126             0.5             0.5               1               0         0
         1        73       127             0.5             0.5               1               0         0
         1        73       128             0.5             0.5               1               0         0
         1        73       129             0.5             0.5               1               0         0
         1        73       130             0.5             0.5               1               0         0
         1        74       121             0.5             0.5               1               0         0
         1        74       122             0.5             0.5               1               0         0
         1        74       123             0.5             0.5               1               0         0
         1        74       124             0.5             0.5               1               0         0
         1        74       125             0.5             0.5               1               0         0
         1        74       126             0.5             0.5               1               0         0
         1        74       127             0.5             0.5               1               0         0
         1        74       128             0.5             0.5               1               0         0
         1        74       129             0.5             0.5               1               0         0
         1        75       120             0.5             0.5               1               0         0
         1        75       121             0.5             0.5               1               0         0
         1        75       122             0.5             0.5               1               0         0
         1        75       123             0.5             0.5               1               0         0
         1        75       124             0.5             0.5               1               0         0
         1        75       125             0.5             0.5               1               0         0
         1        75       126             0.5             0.5               1               0         0
         1        75       127             0.5             0.5               1               0         0
         1        75       128             0.5             0.5               1               0         0
         1        75       129             0.5             0.5               1               0         0
         1        76       119             0.5             0.5               1               0         0
         1        76       120             0.5             0.5               1               0         0
         1        76       121             0.5             0.5               1               0         0
         1        76       122             0.5             0.5               1               0         0
         1        76       123             0.5             0.5               1               0         0
         1        76       124             0.5             0.5               1               0         0
         1        76       125             0.5             0.5               1               0         0
         1        76       126             0.5             0.5               1               0         0
         1        76       127             0.5             0.5               1               0         0
         1        76       128             0.5             0.5               1               0         0
         1        77       119             0.5             0.5               1               0         0
         1        77       120             0.5             0.5               1               0         0
         1        77       121             0.5             0.5               1               0         0
         1        77       122             0.5             0.5               1               0         0
         1        77       123             0.5             0.5               1               0         0
         1        77       124             0.5             0.5               1               0         0
         1        77       125             0.5             0.5               1               0         0
         1        77       126             0.5             0.5               1               0         0
         1        77       127             0.5             0.5               1               0         0
         1        77       128             0.5             0.5               1               0         0
         1        78       119             0.5             0.5               1               0         0
         1        78       120             0.5             0.5               1               0         0
         1        78       121             0.5             0.5               1               0         0
         1        78       122             0.5             0.5               1               0         0
         1        78       123             0.5             0.5               1               0         0
         1        78       124             0.5             0.5               1               0         0
         1        78       125             0.5             0.5               1               0         0
         1        78       126             0.5             0.5               1               0         0
         1        78       127             0.5             0.5               1               0         0
         1        78       128             0.5             0.5               1               0         0
         1        79       118             0.5             0.5               1               0         0
         1        79       119             0.5             0.5               1               0         0
         1        79       120             0.5             0.5               1               0         0
         1        79       121             0.5             0.5               1               0         0
         1        79       122             0.5             0.5               1               0         0
         1        79       123             0.5             0.5               1               0         0
         1        79       124             0.5             0.5               1               0         0
         1        79       125             0.5             0.5               1               0         0
         1        79       126             0.5             0.5               1               0         0
         1        80       117             0.5             0.5               1               0         0
         1        80       118             0.5             0.5               1               0         0
         1        80       119             0.5             0.5               1               0         0
         1        80       120             0.5             0.5               1               0         0
         1        80       121             0.5             0.5               1               0         0
         1        80       122             0.5             0.5               1               0         0
         1        80       123             0.5             0.5               1               0         0
         1        80       124             0.5             0.5               1               0         0
         1        80       125             0.5             0.5               1               0         0
         1        81       117             0.5             0.5               1               0         0
         1        81       118             0.5             0.5               1               0         0
         1        81       119             0.5             0.5               1               0         0
         1        81       120             0.5             0.5               1               0         0
         1        81       121             0.5             0.5               1               0         0
         1        81       122             0.5             0.5               1               0         0
         1        81       123             0.5             0.5               1               0         0
         1        81       124             0.5             0.5               1               0         0
         1        81       125             0.5             0.5               1               0         0
         1        82       117             0.5             0.5               1               0         0
         1        82       118             0.5             0.5               1               0         0
         1        82       119             0.5             0.5               1               0         0
         1        82       120             0.5             0.5               1               0         0
         1        82       121             0.5             0.5               1               0         0
         1        82       122             0.5             0.5               1               0         0
         1        82       123             0.5             0.5               1               0         0
         1        82       124             0.5             0.5               1               0         0
         1        83       117             0.5             0.5               1               0         0
         1        83       118             0.5             0.5               1               0         0
         1        83       119             0.5             0.5               1               0         0
         1        83       120             0.5             0.5               1               0         0
         1        83       121             0.5             0.5               1               0         0
         1        83       122             0.5             0.5               1               0         0
         1        83       123             0.5             0.5               1               0         0
         1        84       116             0.5             0.5               1               0         0
         1        84       117             0.5             0.5               1               0         0
         1        84       118             0.5             0.5               1               0         0
         1        84       119             0.5             0.5               1               0         0
         1        84       120             0.5             0.5               1               0         0
         1        84       121             0.5             0.5               1               0         0
         1        84       122             0.5             0.5               1               0         0
         1        85       117             0.5             0.5               1               0         0
         1        85       118             0.5             0.5               1               0         0
         1        85       119             0.5             0.5               1               0         0
         1        85       120             0.5             0.5               1               0         0
         1        85       121             0.5             0.5               1               0         0
         1        86       117             0.5             0.5               1               0         0
         1        86       118             0.5             0.5               1               0         0
         1        86       119             0.5             0.5               1               0         0
         1        86       120             0.5             0.5               1               0         0
         1        87       117             0.5             0.5               1               0         0
         1        87       118             0.5             0.5               1               0         0
         1        87       119             0.5             0.5               1               0         0
         1        87       120             0.5             0.5               1               0         0
         1        88       117             0.5             0.5               1               0         0
         1        88       118             0.5             0.5               1               0         0
         1        88       119             0.5             0.5               1               0         0
         1        89       117             0.5             0.5               1               0         0
         1        89       118             0.5             0.5               1               0         0
         1        89       119             0.5             0.5       0.9730748               0         0
         1        90       117             0.5             0.5               1               0         0
         1        90       118             0.5             0.5               1               0         0
         1        91       117             0.5             0.5               1               0         0
         1        91       118             0.5             0.5               1               0         0
         1        92       117             0.5             0.5               1               0         0
         1        92       118             0.5             0.5               1               0         0
         1        93       117             0.5             0.5               1               0         0
         1        93       118             0.5             0.5               1               0         0
         1        94       117             0.5             0.5               1               0         0
         1        94       118             0.5             0.5               1               0         0
         1        95       117             0.5             0.5               1               0         0
         1        95       118             0.5             0.5               1               0         0
         1        96       117             0.5             0.5               1               0         0
         1        96       118             0.5             0.5               1               0         0
         1        97       116             0.5             0.5               1               0         0
         1        97       117             0.5             0.5               1               0         0
         1        97       118             0.5             0.5               1               0         0
         1        97       119             0.5             0.5               1               0         0
         1        98       116             0.5             0.5               1               0         0
         1        98       117             0.5             0.5               1               0         0
         1        98       118             0.5             0.5               1               0         0
         1        98       119             0.5             0.5               1               0         0
         1        99       116             0.5             0.5               1               0         0
         1        99       118             0.5             0.5               1               0         0
         1        99       119             0.5             0.5               1               0         0
         1       100       115             0.5             0.5               1               0         0
         1       100       118             0.5             0.5               1               0         0
         1       100       119             0.5             0.5               1               0         0
         1       101       118             0.5             0.5               1               0         0
         1       101       119             0.5             0.5               1               0         0
         1       102       118             0.5             0.5               1               0         0
         1       102       119             0.5             0.5               1               0         0
         1       103       118             0.5             0.5               1               0         0
         1       103       119             0.5             0.5               1               0         0
         1       104       118             0.5             0.5               1               0         0
         1       104       119             0.5             0.5               1               0         0
         1       105       118             0.5             0.5               1               0         0
         1       105       119             0.5             0.5               1               0         0
         1       106       118             0.5             0.5               1               0         0
         1       106       119             0.5             0.5               1               0         0
         1       107       118             0.5             0.5               1               0         0
         1       107       119             0.5             0.5               1               0         0
         1       108       118             0.5             0.5               1               0         0
         1       108       119             0.5             0.5               1               0         0
         1       109       117             0.5             0.5               1               0         0
         1       109       118             0.5             0.5               1               0         0
         1       109       119             0.5             0.5               1               0         0
         1       109       120             0.5             0.5               1               0         0
         1       110       115             0.5             0.5               1               0         0
         1       110       116             0.5             0.5               1               0         0
         1       110       117             0.5             0.5               1               0         0
         1       110       118             0.5             0.5               1               0         0
         1       110       119             0.5             0.5               1               0         0
         1       110       120             0.5             0.5               1               0         0
         1       111       114             0.5             0.5               1               0         0
         1       111       115             0.5             0.5               1               0         0
         1       111       116             0.5             0.5               1               0         0
         1       111       117             0.5             0.5               1               0         0
         1       111       118             0.5             0.5               1               0         0
         1       111       119             0.5             0.5               1               0         0
         1       111       120             0.5             0.5       0.9902712               0         0
         1       112       106             0.5             0.5               1               0         0
         1       112       114             0.5             0.5               1               0         0
         1       112       115             0.5             0.5               1               0         0
         1       112       116             0.5             0.5               1               0         0
         1       112       117             0.5             0.5               1               0         0
         1       112       118             0.5             0.5               1               0         0
         1       112       119             0.5             0.5               1               0         0
         1       113       104             0.5             0.5               1               0         0
         1       113       105             0.5             0.5               1               0         0
         1       113       106             0.5             0.5               1               0         0
         1       113       107             0.5             0.5               1               0         0
         1       113       113             0.5             0.5               1               0         0
         1       113       114             0.5             0.5               1               0         0
         1       113       115             0.5             0.5               1               0         0
         1       113       116             0.5             0.5               1               0         0
         1       113       117             0.5             0.5               1               0         0
         1       113       118             0.5             0.5               1               0         0
         1       113       119             0.5             0.5               1               0         0
         1       114       104             0.5             0.5               1               0         0
         1       114       105             0.5             0.5               1               0         0
         1       114       106             0.5             0.5               1               0         0
         1       114       107             0.5             0.5               1               0         0
         1       114       108             0.5             0.5               1               0         0
         1       114       109             0.5             0.5               1               0         0
         1       114       111             0.5             0.5               1               0         0
         1       114       112             0.5             0.5               1               0         0
         1       114       113             0.5             0.5               1               0         0
         1       114       114             0.5             0.5               1               0         0
         1       114       115             0.5             0.5               1               0         0
         1       114       116             0.5             0.5               1               0         0
         1       114       117             0.5             0.5               1               0         0
         1       114       118             0.5             0.5               1               0         0
         1       114       119             0.5             0.5               1               0         0
         1       114       120             0.5             0.5               1               0         0
         1       115       106             0.5             0.5               1               0         0
         1       115       107             0.5             0.5               1               0         0
         1       115       108             0.5             0.5               1               0         0
         1       115       109             0.5             0.5               1               0         0
         1       115       110             0.5             0.5               1               0         0
         1       115       111             0.5             0.5               1               0         0
         1       115       112             0.5             0.5               1               0         0
         1       115       113             0.5             0.5               1               0         0
         1       115       114             0.5             0.5               1               0         0
         1       115       115             0.5             0.5               1               0         0
         1       115       116             0.5             0.5               1               0         0
         1       115       117             0.5             0.5               1               0         0
         1       115       118             0.5             0.5               1               0         0
         1       115       119             0.5             0.5               1               0         0
         1       115       120             0.5             0.5               1               0         0
         1       116       108             0.5             0.5               1               0         0