# File generated by Flopy version 3.9.3 on 09/16/2025 at 02:03:44.
BEGIN options
  BUDGET  FILEOUT  gwf_model.cbb
  HEAD  FILEOUT  gwf_model.hds
END options

BEGIN period  1
  SAVE  HEAD  ALL
  SAVE  BUDGET  ALL
  PRINT  HEAD  LAST
END period  1

