# File generated by Flopy version 3.9.3 on 09/16/2025 at 02:03:44.
BEGIN options
  SAVE_FLOWS
END options

BEGIN packages
  DIS6  gwf_model.dis  dis
  IC6  gwf_model.ic  ic
  NPF6  gwf_model.npf  npf
  CHD6  gwf_model.chd  chd_river
  CHD6  gwf_model_0.chd  chd_sides
  OC6  gwf_model.oc  oc
END packages

