# File generated by Flopy version 3.9.3 on 09/11/2025 at 01:29:08.
BEGIN options
  SAVE_FLOWS
END options

BEGIN dimensions
  MAXBOUND  6978
END dimensions

BEGIN period  1
  1 66 134 1.60078430E+03
  1 66 135 1.60077991E+03
  1 66 136 1.60077673E+03
  1 66 137 1.60077441E+03
  1 67 133 1.60081592E+03
  1 67 134 1.60079688E+03
  1 67 135 1.60078662E+03
  1 67 136 1.60078040E+03
  1 67 137 1.60077612E+03
  1 67 138 1.60077319E+03
  1 68 132 1.60087219E+03
  1 68 133 1.60084241E+03
  1 68 134 1.60081421E+03
  1 68 135 1.60079602E+03
  1 68 136 1.60078406E+03
  1 69 124 1.60123999E+03
  1 69 125 1.60123987E+03
  1 69 126 1.60123950E+03
  1 69 131 1.60091455E+03
  1 69 132 1.60089514E+03
  1 69 133 1.60086658E+03
  1 69 134 1.60083423E+03
  1 70 123 1.60124048E+03
  1 70 124 1.60124023E+03
  1 70 125 1.60123987E+03
  1 70 126 1.60123950E+03
  1 70 127 1.60123926E+03
  1 70 131 1.60095911E+03
  1 70 132 1.60092468E+03
  1 70 133 1.60089087E+03
  1 71 123 1.60124146E+03
  1 71 124 1.60124072E+03
  1 71 125 1.60123987E+03
  1 71 126 1.60123926E+03
  1 71 127 1.60123840E+03
  1 71 130 1.60109680E+03
  1 71 131 1.60102747E+03
  1 72 122 1.60124438E+03
  1 72 123 1.60124292E+03
  1 72 124 1.60124170E+03
  1 72 125 1.60124048E+03
  1 72 126 1.60123914E+03
  1 72 127 1.60123682E+03
  1 72 128 1.60122925E+03
  1 72 129 1.60120508E+03
  1 72 130 1.60116077E+03
  1 73 122 1.60124707E+03
  1 73 123 1.60124500E+03
  1 73 124 1.60124304E+03
  1 73 125 1.60124133E+03
  1 73 126 1.60123962E+03
  1 73 127 1.60123669E+03
  1 73 128 1.60123096E+03
  1 73 129 1.60121912E+03
  1 73 130 1.60119678E+03
  1 74 121 1.60125122E+03
  1 74 122 1.60124927E+03
  1 74 123 1.60124719E+03
  1 74 124 1.60124512E+03
  1 74 125 1.60124292E+03
  1 74 126 1.60124072E+03
  1 74 127 1.60123853E+03
  1 74 128 1.60123535E+03
  1 74 129 1.60123096E+03
  1 75 120 1.60125562E+03
  1 75 121 1.60125342E+03
  1 75 122 1.60125146E+03
  1 75 123 1.60124951E+03
  1 75 124 1.60124731E+03
  1 75 125 1.60124500E+03
  1 75 126 1.60124268E+03
  1 75 127 1.60124072E+03
  1 75 128 1.60123889E+03
  1 75 129 1.60123767E+03
  1 76 119 1.60125928E+03
  1 76 120 1.60125830E+03
  1 76 121 1.60125586E+03
  1 76 122 1.60125391E+03
  1 76 123 1.60125195E+03
  1 76 124 1.60124976E+03
  1 76 125 1.60124731E+03
  1 76 126 1.60124487E+03
  1 76 127 1.60124268E+03
  1 76 128 1.60124097E+03
  1 77 119 1.60126392E+03
  1 77 120 1.60126123E+03
  1 77 121 1.60125854E+03
  1 77 122 1.60125659E+03
  1 77 123 1.60125464E+03
  1 77 124 1.60125244E+03
  1 77 125 1.60125000E+03
  1 77 126 1.60124731E+03
  1 77 127 1.60124500E+03
  1 77 128 1.60124255E+03
  1 78 119 1.60127185E+03
  1 78 120 1.60126721E+03
  1 78 121 1.60126233E+03
  1 78 122 1.60125977E+03
  1 78 123 1.60125745E+03
  1 78 124 1.60125525E+03
  1 78 125 1.60125305E+03
  1 78 126 1.60125024E+03
  1 78 127 1.60124731E+03
  1 78 128 1.60124512E+03
  1 79 118 1.60128711E+03
  1 79 119 1.60128113E+03
  1 79 120 1.60127490E+03
  1 79 121 1.60126782E+03
  1 79 122 1.60126379E+03
  1 79 123 1.60126074E+03
  1 79 124 1.60125830E+03
  1 79 125 1.60125635E+03
  1 79 126 1.60125354E+03
  1 80 117 1.60131323E+03
  1 80 118 1.60130859E+03
  1 80 119 1.60130066E+03
  1 80 120 1.60129199E+03
  1 80 121 1.60128076E+03
  1 80 122 1.60127344E+03
  1 80 123 1.60126721E+03
  1 80 124 1.60126331E+03
  1 80 125 1.60126074E+03
  1 81 117 1.60132861E+03
  1 81 118 1.60132556E+03
  1 81 119 1.60131775E+03
  1 81 120 1.60130908E+03
  1 81 121 1.60129578E+03
  1 81 122 1.60128540E+03
  1 81 123 1.60127600E+03
  1 81 124 1.60126868E+03
  1 81 125 1.60126404E+03
  1 82 117 1.60134619E+03
  1 82 118 1.60134155E+03
  1 82 119 1.60133484E+03
  1 82 120 1.60132629E+03
  1 82 121 1.60131262E+03
  1 82 122 1.60130054E+03
  1 82 123 1.60128833E+03
  1 82 124 1.60127771E+03
  1 83 117 1.60136426E+03
  1 83 118 1.60135901E+03
  1 83 119 1.60135217E+03
  1 83 120 1.60134375E+03
  1 83 121 1.60132910E+03
  1 83 122 1.60131604E+03
  1 83 123 1.60130115E+03
  1 84 116 1.60138208E+03
  1 84 117 1.60138049E+03
  1 84 118 1.60137671E+03
  1 84 119 1.60137024E+03
  1 84 120 1.60136133E+03
  1 84 121 1.60134692E+03
  1 84 122 1.60133154E+03
  1 85 117 1.60139893E+03
  1 85 118 1.60139648E+03
  1 85 119 1.60138977E+03
  1 85 120 1.60137976E+03
  1 85 121 1.60136426E+03
  1 86 117 1.60142261E+03
  1 86 118 1.60142017E+03
  1 86 119 1.60141235E+03
  1 86 120 1.60140063E+03
  1 87 117 1.60145361E+03
  1 87 118 1.60144995E+03
  1 87 119 1.60143921E+03
  1 87 120 1.60142407E+03
  1 88 117 1.60149451E+03
  1 88 118 1.60148730E+03
  1 88 119 1.60147095E+03
  1 89 117 1.60153516E+03
  1 89 118 1.60153088E+03
  1 89 119 1.60151538E+03
  1 90 117 1.60157703E+03
  1 90 118 1.60157715E+03
  1 91 117 1.60162927E+03
  1 91 118 1.60162561E+03
  1 92 117 1.60168884E+03
  1 92 118 1.60168530E+03
  1 93 117 1.60176257E+03
  1 93 118 1.60176086E+03
  1 94 117 1.60182544E+03
  1 94 118 1.60183386E+03
  1 95 117 1.60206055E+03
  1 95 118 1.60208997E+03
  1 96 117 1.60232654E+03
  1 96 118 1.60236646E+03
  1 97 116 1.60264966E+03
  1 97 117 1.60262671E+03
  1 97 118 1.60265649E+03
  1 97 119 1.60278625E+03
  1 98 116 1.60269604E+03
  1 98 117 1.60275085E+03
  1 98 118 1.60283154E+03
  1 98 119 1.60288477E+03
  1 99 116 1.60269934E+03
  1 99 118 1.60302710E+03
  1 99 119 1.60304468E+03
  1 100 115 1.60269922E+03
  1 100 118 1.60321619E+03
  1 100 119 1.60323340E+03
  1 101 118 1.60336011E+03
  1 101 119 1.60337183E+03
  1 102 118 1.60347412E+03
  1 102 119 1.60346509E+03
  1 103 118 1.60352563E+03
  1 103 119 1.60352710E+03
  1 104 118 1.60361279E+03
  1 104 119 1.60362512E+03
  1 105 118 1.60380066E+03
  1 105 119 1.60382471E+03
  1 106 118 1.60421741E+03
  1 106 119 1.60422900E+03
  1 107 118 1.60448816E+03
  1 107 119 1.60447815E+03
  1 108 118 1.60464209E+03
  1 108 119 1.60461926E+03
  1 109 117 1.60471533E+03
  1 109 118 1.60469885E+03
  1 109 119 1.60468787E+03
  1 109 120 1.60469153E+03
  1 110 115 1.60474536E+03
  1 110 116 1.60474097E+03
  1 110 117 1.60473218E+03
  1 110 118 1.60472314E+03
  1 110 119 1.60471802E+03
  1 110 120 1.60471436E+03
  1 111 114 1.60474976E+03
  1 111 115 1.60474768E+03
  1 111 116 1.60474463E+03
  1 111 117 1.60474048E+03
  1 111 118 1.60473633E+03
  1 111 119 1.60473376E+03
  1 111 120 1.60473291E+03
  1 112 106 1.60476611E+03
  1 112 114 1.60475159E+03
  1 112 115 1.60475012E+03
  1 112 116 1.60474792E+03
  1 112 117 1.60474585E+03
  1 112 118 1.60474377E+03
  1 112 119 1.60474268E+03
  1 113 104 1.60476636E+03
  1 113 105 1.60476624E+03
  1 113 106 1.60476611E+03
  1 113 107 1.60476611E+03
  1 113 113 1.60475513E+03
  1 113 114 1.60475378E+03
  1 113 115 1.60475244E+03
  1 113 116 1.60475110E+03
  1 113 117 1.60474963E+03
  1 113 118 1.60474878E+03
  1 113 119 1.60474854E+03
  1 114 104 1.60476624E+03
  1 114 105 1.60476624E+03
  1 114 106 1.60476611E+03
  1 114 107 1.60476611E+03
  1 114 108 1.60476575E+03
  1 114 109 1.60476538E+03
  1 114 111 1.60476233E+03
  1 114 112 1.60476025E+03
  1 114 113 1.60475830E+03
  1 114 114 1.60475684E+03
  1 114 115 1.60475562E+03
  1 114 116 1.60475452E+03
  1 114 117 1.60475354E+03
  1 114 118 1.60475293E+03
  1 114 119 1.60475281E+03
  1 114 120 1.60475305E+03
  1 115 106 1.60476611E+03
  1 115 107 1.60476611E+03
  1 115 108 1.60476587E+03
  1 115 109 1.60476526E+03
  1 115 110 1.60476416E+03
  1 115 111 1.60476294E+03
  1 115 112 1.60476135E+03
  1 115 113 1.60475989E+03
  1 115 114 1.60475842E+03
  1 115 115 1.60475757E+03
  1 115 116 1.60475659E+03
  1 115 117 1.60475574E+03
  1 115 118 1.60475513E+03
  1 115 119 1.60475476E+03
  1 115 120 1.60475452E+03
  1 116 108 1.60476587E+03
  1 116 109 1.60476514E+03
  1 116 110 1.60476440E+03
  1 116 111 1.60476343E+03
  1 116 112 1.60476245E+03
  1 116 113 1.60476123E+03
  1 116 114 1.60476025E+03
  1 116 115 1.60475916E+03
  1 116 116 1.60475818E+03
  1 116 117 1.60475757E+03
  1 116 118 1.60475684E+03
  1 116 119 1.60475647E+03
  1 116 120 1.60475610E+03
  1 117 111 1.60476416E+03
  1 117 112 1.60476318E+03
  1 117 113 1.60476208E+03
  1 117 114 1.60476135E+03
  1 117 115 1.60476062E+03
  1 117 116 1.60475977E+03
  1 117 117 1.60475928E+03
  1 117 118 1.60475854E+03
  1 117 119 1.60475806E+03
  1 117 120 1.60475732E+03
  1 118 113 1.60476306E+03
  1 118 114 1.60476245E+03
  1 118 115 1.60476172E+03
  1 118 116 1.60476111E+03
  1 118 117 1.60476050E+03
  1 118 118 1.60475989E+03
  1 118 119 1.60475952E+03
  1 118 120 1.60475903E+03
  1 119 116 1.60476221E+03
  1 119 117 1.60476172E+03
  1 119 118 1.60476111E+03
  1 119 119 1.60476086E+03
  1 120 118 1.60476221E+03
  1 120 119 1.60476172E+03
  1 121 126 1.60553421E+03
  2 121 126 1.60553421E+03
  3 121 126 1.60553421E+03
  4 121 126 1.60553421E+03
  5 121 126 1.60553421E+03
  6 121 126 1.60553421E+03
  7 121 126 1.60553421E+03
  8 121 126 1.60553421E+03
  9 121 126 1.60553421E+03
  10 121 126 1.60553421E+03
  11 121 126 1.60553421E+03
  12 121 126 1.60553421E+03
  13 121 126 1.60553421E+03
  14 121 126 1.60553421E+03
  15 121 126 1.60553421E+03
  16 121 126 1.60553421E+03
  17 121 126 1.60553421E+03
  18 121 126 1.60553421E+03
  19 121 126 1.60553421E+03
  20 121 126 1.60553421E+03
  21 121 126 1.60553421E+03
  22 121 126 1.60553421E+03
  23 121 126 1.60553421E+03
  24 121 126 1.60553421E+03
  25 121 126 1.60553421E+03
  26 121 126 1.60553421E+03
  27 121 126 1.60553421E+03
  28 121 126 1.60553421E+03
  29 121 126 1.60553421E+03
  30 121 126 1.60553421E+03
  31 121 126 1.60553421E+03
  32 121 126 1.60553421E+03
  33 121 126 1.60553421E+03
  34 121 126 1.60553421E+03
  35 121 126 1.60553421E+03
  36 121 126 1.60553421E+03
  37 121 126 1.60553421E+03
  38 121 126 1.60553421E+03
  39 121 126 1.60553421E+03
  40 121 126 1.60553421E+03
  1 120 127 1.60545731E+03
  2 120 127 1.60545731E+03
  3 120 127 1.60545731E+03
  4 120 127 1.60545731E+03
  5 120 127 1.60545731E+03
  6 120 127 1.60545731E+03
  7 120 127 1.60545731E+03
  8 120 127 1.60545731E+03
  9 120 127 1.60545731E+03
  10 120 127 1.60545731E+03
  11 120 127 1.60545731E+03
  12 120 127 1.60545731E+03
  13 120 127 1.60545731E+03
  14 120 127 1.60545731E+03
  15 120 127 1.60545731E+03
  16 120 127 1.60545731E+03
  17 120 127 1.60545731E+03
  18 120 127 1.60545731E+03
  19 120 127 1.60545731E+03
  20 120 127 1.60545731E+03
  21 120 127 1.60545731E+03
  22 120 127 1.60545731E+03
  23 120 127 1.60545731E+03
  24 120 127 1.60545731E+03
  25 120 127 1.60545731E+03
  26 120 127 1.60545731E+03
  27 120 127 1.60545731E+03
  28 120 127 1.60545731E+03
  29 120 127 1.60545731E+03
  30 120 127 1.60545731E+03
  31 120 127 1.60545731E+03
  32 120 127 1.60545731E+03
  33 120 127 1.60545731E+03
  34 120 127 1.60545731E+03
  35 120 127 1.60545731E+03
  36 120 127 1.60545731E+03
  37 120 127 1.60545731E+03
  38 120 127 1.60545731E+03
  39 120 127 1.60545731E+03
  40 120 127 1.60545731E+03
  1 119 127 1.60538042E+03
  2 119 127 1.60538042E+03
  3 119 127 1.60538042E+03
  4 119 127 1.60538042E+03
  5 119 127 1.60538042E+03
  6 119 127 1.60538042E+03
  7 119 127 1.60538042E+03
  8 119 127 1.60538042E+03
  9 119 127 1.60538042E+03
  10 119 127 1.60538042E+03
  11 119 127 1.60538042E+03
  12 119 127 1.60538042E+03
  13 119 127 1.60538042E+03
  14 119 127 1.60538042E+03
  15 119 127 1.60538042E+03
  16 119 127 1.60538042E+03
  17 119 127 1.60538042E+03
  18 119 127 1.60538042E+03
  19 119 127 1.60538042E+03
  20 119 127 1.60538042E+03
  21 119 127 1.60538042E+03
  22 119 127 1.60538042E+03
  23 119 127 1.60538042E+03
  24 119 127 1.60538042E+03
  25 119 127 1.60538042E+03
  26 119 127 1.60538042E+03
  27 119 127 1.60538042E+03
  28 119 127 1.60538042E+03
  29 119 127 1.60538042E+03
  30 119 127 1.60538042E+03
  31 119 127 1.60538042E+03
  32 119 127 1.60538042E+03
  33 119 127 1.60538042E+03
  34 119 127 1.60538042E+03
  35 119 127 1.60538042E+03
  36 119 127 1.60538042E+03
  37 119 127 1.60538042E+03
  38 119 127 1.60538042E+03
  39 119 127 1.60538042E+03
  40 119 127 1.60538042E+03
  1 118 128 1.60530352E+03
  2 118 128 1.60530352E+03
  3 118 128 1.60530352E+03
  4 118 128 1.60530352E+03
  5 118 128 1.60530352E+03
  6 118 128 1.60530352E+03
  7 118 128 1.60530352E+03
  8 118 128 1.60530352E+03
  9 118 128 1.60530352E+03
  10 118 128 1.60530352E+03
  11 118 128 1.60530352E+03
  12 118 128 1.60530352E+03
  13 118 128 1.60530352E+03
  14 118 128 1.60530352E+03
  15 118 128 1.60530352E+03
  16 118 128 1.60530352E+03
  17 118 128 1.60530352E+03
  18 118 128 1.60530352E+03
  19 118 128 1.60530352E+03
  20 118 128 1.60530352E+03
  21 118 128 1.60530352E+03
  22 118 128 1.60530352E+03
  23 118 128 1.60530352E+03
  24 118 128 1.60530352E+03
  25 118 128 1.60530352E+03
  26 118 128 1.60530352E+03
  27 118 128 1.60530352E+03
  28 118 128 1.60530352E+03
  29 118 128 1.60530352E+03
  30 118 128 1.60530352E+03
  31 118 128 1.60530352E+03
  32 118 128 1.60530352E+03
  33 118 128 1.60530352E+03
  34 118 128 1.60530352E+03
  35 118 128 1.60530352E+03
  36 118 128 1.60530352E+03
  37 118 128 1.60530352E+03
  38 118 128 1.60530352E+03
  39 118 128 1.60530352E+03
  40 118 128 1.60530352E+03
  1 117 128 1.60522663E+03
  2 117 128 1.60522663E+03
  3 117 128 1.60522663E+03
  4 117 128 1.60522663E+03
  5 117 128 1.60522663E+03
  6 117 128 1.60522663E+03
  7 117 128 1.60522663E+03
  8 117 128 1.60522663E+03
  9 117 128 1.60522663E+03
  10 117 128 1.60522663E+03
  11 117 128 1.60522663E+03
  12 117 128 1.60522663E+03
  13 117 128 1.60522663E+03
  14 117 128 1.60522663E+03
  15 117 128 1.60522663E+03
  16 117 128 1.60522663E+03
  17 117 128 1.60522663E+03
  18 117 128 1.60522663E+03
  19 117 128 1.60522663E+03
  20 117 128 1.60522663E+03
  21 117 128 1.60522663E+03
  22 117 128 1.60522663E+03
  23 117 128 1.60522663E+03
  24 117 128 1.60522663E+03
  25 117 128 1.60522663E+03
  26 117 128 1.60522663E+03
  27 117 128 1.60522663E+03
  28 117 128 1.60522663E+03
  29 117 128 1.60522663E+03
  30 117 128 1.60522663E+03
  31 117 128 1.60522663E+03
  32 117 128 1.60522663E+03
  33 117 128 1.60522663E+03
  34 117 128 1.60522663E+03
  35 117 128 1.60522663E+03
  36 117 128 1.60522663E+03
  37 117 128 1.60522663E+03
  38 117 128 1.60522663E+03
  39 117 128 1.60522663E+03
  40 117 128 1.60522663E+03
  1 116 128 1.60514973E+03
  2 116 128 1.60514973E+03
  3 116 128 1.60514973E+03
  4 116 128 1.60514973E+03
  5 116 128 1.60514973E+03
  6 116 128 1.60514973E+03
  7 116 128 1.60514973E+03
  8 116 128 1.60514973E+03
  9 116 128 1.60514973E+03
  10 116 128 1.60514973E+03
  11 116 128 1.60514973E+03
  12 116 128 1.60514973E+03
  13 116 128 1.60514973E+03
  14 116 128 1.60514973E+03
  15 116 128 1.60514973E+03
  16 116 128 1.60514973E+03
  17 116 128 1.60514973E+03
  18 116 128 1.60514973E+03
  19 116 128 1.60514973E+03
  20 116 128 1.60514973E+03
  21 116 128 1.60514973E+03
  22 116 128 1.60514973E+03
  23 116 128 1.60514973E+03
  24 116 128 1.60514973E+03
  25 116 128 1.60514973E+03
  26 116 128 1.60514973E+03
  27 116 128 1.60514973E+03
  28 116 128 1.60514973E+03
  29 116 128 1.60514973E+03
  30 116 128 1.60514973E+03
  31 116 128 1.60514973E+03
  32 116 128 1.60514973E+03
  33 116 128 1.60514973E+03
  34 116 128 1.60514973E+03
  35 116 128 1.60514973E+03
  36 116 128 1.60514973E+03
  37 116 128 1.60514973E+03
  38 116 128 1.60514973E+03
  39 116 128 1.60514973E+03
  40 116 128 1.60514973E+03
  1 115 129 1.60507284E+03
  2 115 129 1.60507284E+03
  3 115 129 1.60507284E+03
  4 115 129 1.60507284E+03
  5 115 129 1.60507284E+03
  6 115 129 1.60507284E+03
  7 115 129 1.60507284E+03
  8 115 129 1.60507284E+03
  9 115 129 1.60507284E+03
  10 115 129 1.60507284E+03
  11 115 129 1.60507284E+03
  12 115 129 1.60507284E+03
  13 115 129 1.60507284E+03
  14 115 129 1.60507284E+03
  15 115 129 1.60507284E+03
  16 115 129 1.60507284E+03
  17 115 129 1.60507284E+03
  18 115 129 1.60507284E+03
  19 115 129 1.60507284E+03
  20 115 129 1.60507284E+03
  21 115 129 1.60507284E+03
  22 115 129 1.60507284E+03
  23 115 129 1.60507284E+03
  24 115 129 1.60507284E+03
  25 115 129 1.60507284E+03
  26 115 129 1.60507284E+03
  27 115 129 1.60507284E+03
  28 115 129 1.60507284E+03
  29 115 129 1.60507284E+03
  30 115 129 1.60507284E+03
  31 115 129 1.60507284E+03
  32 115 129 1.60507284E+03
  33 115 129 1.60507284E+03
  34 115 129 1.60507284E+03
  35 115 129 1.60507284E+03
  36 115 129 1.60507284E+03
  37 115 129 1.60507284E+03
  38 115 129 1.60507284E+03
  39 115 129 1.60507284E+03
  40 115 129 1.60507284E+03
  1 114 129 1.60499594E+03
  2 114 129 1.60499594E+03
  3 114 129 1.60499594E+03
  4 114 129 1.60499594E+03
  5 114 129 1.60499594E+03
  6 114 129 1.60499594E+03
  7 114 129 1.60499594E+03
  8 114 129 1.60499594E+03
  9 114 129 1.60499594E+03
  10 114 129 1.60499594E+03
  11 114 129 1.60499594E+03
  12 114 129 1.60499594E+03
  13 114 129 1.60499594E+03
  14 114 129 1.60499594E+03
  15 114 129 1.60499594E+03
  16 114 129 1.60499594E+03
  17 114 129 1.60499594E+03
  18 114 129 1.60499594E+03
  19 114 129 1.60499594E+03
  20 114 129 1.60499594E+03
  21 114 129 1.60499594E+03
  22 114 129 1.60499594E+03
  23 114 129 1.60499594E+03
  24 114 129 1.60499594E+03
  25 114 129 1.60499594E+03
  26 114 129 1.60499594E+03
  27 114 129 1.60499594E+03
  28 114 129 1.60499594E+03
  29 114 129 1.60499594E+03
  30 114 129 1.60499594E+03
  31 114 129 1.60499594E+03
  32 114 129 1.60499594E+03
  33 114 129 1.60499594E+03
  34 114 129 1.60499594E+03
  35 114 129 1.60499594E+03
  36 114 129 1.60499594E+03
  37 114 129 1.60499594E+03
  38 114 129 1.60499594E+03
  39 114 129 1.60499594E+03
  40 114 129 1.60499594E+03
  1 113 130 1.60491905E+03
  2 113 130 1.60491905E+03
  3 113 130 1.60491905E+03
  4 113 130 1.60491905E+03
  5 113 130 1.60491905E+03
  6 113 130 1.60491905E+03
  7 113 130 1.60491905E+03
  8 113 130 1.60491905E+03
  9 113 130 1.60491905E+03
  10 113 130 1.60491905E+03
  11 113 130 1.60491905E+03
  12 113 130 1.60491905E+03
  13 113 130 1.60491905E+03
  14 113 130 1.60491905E+03
  15 113 130 1.60491905E+03
  16 113 130 1.60491905E+03
  17 113 130 1.60491905E+03
  18 113 130 1.60491905E+03
  19 113 130 1.60491905E+03
  20 113 130 1.60491905E+03
  21 113 130 1.60491905E+03
  22 113 130 1.60491905E+03
  23 113 130 1.60491905E+03
  24 113 130 1.60491905E+03
  25 113 130 1.60491905E+03
  26 113 130 1.60491905E+03
  27 113 130 1.60491905E+03
  28 113 130 1.60491905E+03
  29 113 130 1.60491905E+03
  30 113 130 1.60491905E+03
  31 113 130 1.60491905E+03
  32 113 130 1.60491905E+03
  33 113 130 1.60491905E+03
  34 113 130 1.60491905E+03
  35 113 130 1.60491905E+03
  36 113 130 1.60491905E+03
  37 113 130 1.60491905E+03
  38 113 130 1.60491905E+03
  39 113 130 1.60491905E+03
  40 113 130 1.60491905E+03
  1 112 130 1.60484216E+03
  2 112 130 1.60484216E+03
  3 112 130 1.60484216E+03
  4 112 130 1.60484216E+03
  5 112 130 1.60484216E+03
  6 112 130 1.60484216E+03
  7 112 130 1.60484216E+03
  8 112 130 1.60484216E+03
  9 112 130 1.60484216E+03
  10 112 130 1.60484216E+03
  11 112 130 1.60484216E+03
  12 112 130 1.60484216E+03
  13 112 130 1.60484216E+03
  14 112 130 1.60484216E+03
  15 112 130 1.60484216E+03
  16 112 130 1.60484216E+03
  17 112 130 1.60484216E+03
  18 112 130 1.60484216E+03
  19 112 130 1.60484216E+03
  20 112 130 1.60484216E+03
  21 112 130 1.60484216E+03
  22 112 130 1.60484216E+03
  23 112 130 1.60484216E+03
  24 112 130 1.60484216E+03
  25 112 130 1.60484216E+03
  26 112 130 1.60484216E+03
  27 112 130 1.60484216E+03
  28 112 130 1.60484216E+03
  29 112 130 1.60484216E+03
  30 112 130 1.60484216E+03
  31 112 130 1.60484216E+03
  32 112 130 1.60484216E+03
  33 112 130 1.60484216E+03
  34 112 130 1.60484216E+03
  35 112 130 1.60484216E+03
  36 112 130 1.60484216E+03
  37 112 130 1.60484216E+03
  38 112 130 1.60484216E+03
  39 112 130 1.60484216E+03
  40 112 130 1.60484216E+03
  1 111 130 1.60476526E+03
  2 111 130 1.60476526E+03
  3 111 130 1.60476526E+03
  4 111 130 1.60476526E+03
  5 111 130 1.60476526E+03
  6 111 130 1.60476526E+03
  7 111 130 1.60476526E+03
  8 111 130 1.60476526E+03
  9 111 130 1.60476526E+03
  10 111 130 1.60476526E+03
  11 111 130 1.60476526E+03
  12 111 130 1.60476526E+03
  13 111 130 1.60476526E+03
  14 111 130 1.60476526E+03
  15 111 130 1.60476526E+03
  16 111 130 1.60476526E+03
  17 111 130 1.60476526E+03
  18 111 130 1.60476526E+03
  19 111 130 1.60476526E+03
  20 111 130 1.60476526E+03
  21 111 130 1.60476526E+03
  22 111 130 1.60476526E+03
  23 111 130 1.60476526E+03
  24 111 130 1.60476526E+03
  25 111 130 1.60476526E+03
  26 111 130 1.60476526E+03
  27 111 130 1.60476526E+03
  28 111 130 1.60476526E+03
  29 111 130 1.60476526E+03
  30 111 130 1.60476526E+03
  31 111 130 1.60476526E+03
  32 111 130 1.60476526E+03
  33 111 130 1.60476526E+03
  34 111 130 1.60476526E+03
  35 111 130 1.60476526E+03
  36 111 130 1.60476526E+03
  37 111 130 1.60476526E+03
  38 111 130 1.60476526E+03
  39 111 130 1.60476526E+03
  40 111 130 1.60476526E+03
  1 110 131 1.60468837E+03
  2 110 131 1.60468837E+03
  3 110 131 1.60468837E+03
  4 110 131 1.60468837E+03
  5 110 131 1.60468837E+03
  6 110 131 1.60468837E+03
  7 110 131 1.60468837E+03
  8 110 131 1.60468837E+03
  9 110 131 1.60468837E+03
  10 110 131 1.60468837E+03
  11 110 131 1.60468837E+03
  12 110 131 1.60468837E+03
  13 110 131 1.60468837E+03
  14 110 131 1.60468837E+03
  15 110 131 1.60468837E+03
  16 110 131 1.60468837E+03
  17 110 131 1.60468837E+03
  18 110 131 1.60468837E+03
  19 110 131 1.60468837E+03
  20 110 131 1.60468837E+03
  21 110 131 1.60468837E+03
  22 110 131 1.60468837E+03
  23 110 131 1.60468837E+03
  24 110 131 1.60468837E+03
  25 110 131 1.60468837E+03
  26 110 131 1.60468837E+03
  27 110 131 1.60468837E+03
  28 110 131 1.60468837E+03
  29 110 131 1.60468837E+03
  30 110 131 1.60468837E+03
  31 110 131 1.60468837E+03
  32 110 131 1.60468837E+03
  33 110 131 1.60468837E+03
  34 110 131 1.60468837E+03
  35 110 131 1.60468837E+03
  36 110 131 1.60468837E+03
  37 110 131 1.60468837E+03
  38 110 131 1.60468837E+03
  39 110 131 1.60468837E+03
  40 110 131 1.60468837E+03
  1 109 131 1.60461147E+03
  2 109 131 1.60461147E+03
  3 109 131 1.60461147E+03
  4 109 131 1.60461147E+03
  5 109 131 1.60461147E+03
  6 109 131 1.60461147E+03
  7 109 131 1.60461147E+03
  8 109 131 1.60461147E+03
  9 109 131 1.60461147E+03
  10 109 131 1.60461147E+03
  11 109 131 1.60461147E+03
  12 109 131 1.60461147E+03
  13 109 131 1.60461147E+03
  14 109 131 1.60461147E+03
  15 109 131 1.60461147E+03
  16 109 131 1.60461147E+03
  17 109 131 1.60461147E+03
  18 109 131 1.60461147E+03
  19 109 131 1.60461147E+03
  20 109 131 1.60461147E+03
  21 109 131 1.60461147E+03
  22 109 131 1.60461147E+03
  23 109 131 1.60461147E+03
  24 109 131 1.60461147E+03
  25 109 131 1.60461147E+03
  26 109 131 1.60461147E+03
  27 109 131 1.60461147E+03
  28 109 131 1.60461147E+03
  29 109 131 1.60461147E+03
  30 109 131 1.60461147E+03
  31 109 131 1.60461147E+03
  32 109 131 1.60461147E+03
  33 109 131 1.60461147E+03
  34 109 131 1.60461147E+03
  35 109 131 1.60461147E+03
  36 109 131 1.60461147E+03
  37 109 131 1.60461147E+03
  38 109 131 1.60461147E+03
  39 109 131 1.60461147E+03
  40 109 131 1.60461147E+03
  1 108 132 1.60453458E+03
  2 108 132 1.60453458E+03
  3 108 132 1.60453458E+03
  4 108 132 1.60453458E+03
  5 108 132 1.60453458E+03
  6 108 132 1.60453458E+03
  7 108 132 1.60453458E+03
  8 108 132 1.60453458E+03
  9 108 132 1.60453458E+03
  10 108 132 1.60453458E+03
  11 108 132 1.60453458E+03
  12 108 132 1.60453458E+03
  13 108 132 1.60453458E+03
  14 108 132 1.60453458E+03
  15 108 132 1.60453458E+03
  16 108 132 1.60453458E+03
  17 108 132 1.60453458E+03
  18 108 132 1.60453458E+03
  19 108 132 1.60453458E+03
  20 108 132 1.60453458E+03
  21 108 132 1.60453458E+03
  22 108 132 1.60453458E+03
  23 108 132 1.60453458E+03
  24 108 132 1.60453458E+03
  25 108 132 1.60453458E+03
  26 108 132 1.60453458E+03
  27 108 132 1.60453458E+03
  28 108 132 1.60453458E+03
  29 108 132 1.60453458E+03
  30 108 132 1.60453458E+03
  31 108 132 1.60453458E+03
  32 108 132 1.60453458E+03
  33 108 132 1.60453458E+03
  34 108 132 1.60453458E+03
  35 108 132 1.60453458E+03
  36 108 132 1.60453458E+03
  37 108 132 1.60453458E+03
  38 108 132 1.60453458E+03
  39 108 132 1.60453458E+03
  40 108 132 1.60453458E+03
  1 107 132 1.60445768E+03
  2 107 132 1.60445768E+03
  3 107 132 1.60445768E+03
  4 107 132 1.60445768E+03
  5 107 132 1.60445768E+03
  6 107 132 1.60445768E+03
  7 107 132 1.60445768E+03
  8 107 132 1.60445768E+03
  9 107 132 1.60445768E+03
  10 107 132 1.60445768E+03
  11 107 132 1.60445768E+03
  12 107 132 1.60445768E+03
  13 107 132 1.60445768E+03
  14 107 132 1.60445768E+03
  15 107 132 1.60445768E+03
  16 107 132 1.60445768E+03
  17 107 132 1.60445768E+03
  18 107 132 1.60445768E+03
  19 107 132 1.60445768E+03
  20 107 132 1.60445768E+03
  21 107 132 1.60445768E+03
  22 107 132 1.60445768E+03
  23 107 132 1.60445768E+03
  24 107 132 1.60445768E+03
  25 107 132 1.60445768E+03
  26 107 132 1.60445768E+03
  27 107 132 1.60445768E+03
  28 107 132 1.60445768E+03
  29 107 132 1.60445768E+03
  30 107 132 1.60445768E+03
  31 107 132 1.60445768E+03
  32 107 132 1.60445768E+03
  33 107 132 1.60445768E+03
  34 107 132 1.60445768E+03
  35 107 132 1.60445768E+03
  36 107 132 1.60445768E+03
  37 107 132 1.60445768E+03
  38 107 132 1.60445768E+03
  39 107 132 1.60445768E+03
  40 107 132 1.60445768E+03
  1 106 133 1.60438079E+03
  2 106 133 1.60438079E+03
  3 106 133 1.60438079E+03
  4 106 133 1.60438079E+03
  5 106 133 1.60438079E+03
  6 106 133 1.60438079E+03
  7 106 133 1.60438079E+03
  8 106 133 1.60438079E+03
  9 106 133 1.60438079E+03
  10 106 133 1.60438079E+03
  11 106 133 1.60438079E+03
  12 106 133 1.60438079E+03
  13 106 133 1.60438079E+03
  14 106 133 1.60438079E+03
  15 106 133 1.60438079E+03
  16 106 133 1.60438079E+03
  17 106 133 1.60438079E+03
  18 106 133 1.60438079E+03
  19 106 133 1.60438079E+03
  20 106 133 1.60438079E+03
  21 106 133 1.60438079E+03
  22 106 133 1.60438079E+03
  23 106 133 1.60438079E+03
  24 106 133 1.60438079E+03
  25 106 133 1.60438079E+03
  26 106 133 1.60438079E+03
  27 106 133 1.60438079E+03
  28 106 133 1.60438079E+03
  29 106 133 1.60438079E+03
  30 106 133 1.60438079E+03
  31 106 133 1.60438079E+03
  32 106 133 1.60438079E+03
  33 106 133 1.60438079E+03
  34 106 133 1.60438079E+03
  35 106 133 1.60438079E+03
  36 106 133 1.60438079E+03
  37 106 133 1.60438079E+03
  38 106 133 1.60438079E+03
  39 106 133 1.60438079E+03
  40 106 133 1.60438079E+03
  1 105 133 1.60430390E+03
  2 105 133 1.60430390E+03
  3 105 133 1.60430390E+03
  4 105 133 1.60430390E+03
  5 105 133 1.60430390E+03
  6 105 133 1.60430390E+03
  7 105 133 1.60430390E+03
  8 105 133 1.60430390E+03
  9 105 133 1.60430390E+03
  10 105 133 1.60430390E+03
  11 105 133 1.60430390E+03
  12 105 133 1.60430390E+03
  13 105 133 1.60430390E+03
  14 105 133 1.60430390E+03
  15 105 133 1.60430390E+03
  16 105 133 1.60430390E+03
  17 105 133 1.60430390E+03
  18 105 133 1.60430390E+03
  19 105 133 1.60430390E+03
  20 105 133 1.60430390E+03
  21 105 133 1.60430390E+03
  22 105 133 1.60430390E+03
  23 105 133 1.60430390E+03
  24 105 133 1.60430390E+03
  25 105 133 1.60430390E+03
  26 105 133 1.60430390E+03
  27 105 133 1.60430390E+03
  28 105 133 1.60430390E+03
  29 105 133 1.60430390E+03
  30 105 133 1.60430390E+03
  31 105 133 1.60430390E+03
  32 105 133 1.60430390E+03
  33 105 133 1.60430390E+03
  34 105 133 1.60430390E+03
  35 105 133 1.60430390E+03
  36 105 133 1.60430390E+03
  37 105 133 1.60430390E+03
  38 105 133 1.60430390E+03
  39 105 133 1.60430390E+03
  40 105 133 1.60430390E+03
  1 104 133 1.60422700E+03
  2 104 133 1.60422700E+03
  3 104 133 1.60422700E+03
  4 104 133 1.60422700E+03
  5 104 133 1.60422700E+03
  6 104 133 1.60422700E+03
  7 104 133 1.60422700E+03
  8 104 133 1.60422700E+03
  9 104 133 1.60422700E+03
  10 104 133 1.60422700E+03
  11 104 133 1.60422700E+03
  12 104 133 1.60422700E+03
  13 104 133 1.60422700E+03
  14 104 133 1.60422700E+03
  15 104 133 1.60422700E+03
  16 104 133 1.60422700E+03
  17 104 133 1.60422700E+03
  18 104 133 1.60422700E+03
  19 104 133 1.60422700E+03
  20 104 133 1.60422700E+03
  21 104 133 1.60422700E+03
  22 104 133 1.60422700E+03
  23 104 133 1.60422700E+03
  24 104 133 1.60422700E+03
  25 104 133 1.60422700E+03
  26 104 133 1.60422700E+03
  27 104 133 1.60422700E+03
  28 104 133 1.60422700E+03
  29 104 133 1.60422700E+03
  30 104 133 1.60422700E+03
  31 104 133 1.60422700E+03
  32 104 133 1.60422700E+03
  33 104 133 1.60422700E+03
  34 104 133 1.60422700E+03
  35 104 133 1.60422700E+03
  36 104 133 1.60422700E+03
  37 104 133 1.60422700E+03
  38 104 133 1.60422700E+03
  39 104 133 1.60422700E+03
  40 104 133 1.60422700E+03
  1 103 134 1.60415011E+03
  2 103 134 1.60415011E+03
  3 103 134 1.60415011E+03
  4 103 134 1.60415011E+03
  5 103 134 1.60415011E+03
  6 103 134 1.60415011E+03
  7 103 134 1.60415011E+03
  8 103 134 1.60415011E+03
  9 103 134 1.60415011E+03
  10 103 134 1.60415011E+03
  11 103 134 1.60415011E+03
  12 103 134 1.60415011E+03
  13 103 134 1.60415011E+03
  14 103 134 1.60415011E+03
  15 103 134 1.60415011E+03
  16 103 134 1.60415011E+03
  17 103 134 1.60415011E+03
  18 103 134 1.60415011E+03
  19 103 134 1.60415011E+03
  20 103 134 1.60415011E+03
  21 103 134 1.60415011E+03
  22 103 134 1.60415011E+03
  23 103 134 1.60415011E+03
  24 103 134 1.60415011E+03
  25 103 134 1.60415011E+03
  26 103 134 1.60415011E+03
  27 103 134 1.60415011E+03
  28 103 134 1.60415011E+03
  29 103 134 1.60415011E+03
  30 103 134 1.60415011E+03
  31 103 134 1.60415011E+03
  32 103 134 1.60415011E+03
  33 103 134 1.60415011E+03
  34 103 134 1.60415011E+03
  35 103 134 1.60415011E+03
  36 103 134 1.60415011E+03
  37 103 134 1.60415011E+03
  38 103 134 1.60415011E+03
  39 103 134 1.60415011E+03
  40 103 134 1.60415011E+03
  1 102 134 1.60407321E+03
  2 102 134 1.60407321E+03
  3 102 134 1.60407321E+03
  4 102 134 1.60407321E+03
  5 102 134 1.60407321E+03
  6 102 134 1.60407321E+03
  7 102 134 1.60407321E+03
  8 102 134 1.60407321E+03
  9 102 134 1.60407321E+03
  10 102 134 1.60407321E+03
  11 102 134 1.60407321E+03