# File generated by Flopy version 3.9.3 on 09/16/2025 at 02:03:44.
BEGIN options
  XORIGIN  2.40609351E+06
  YORIGIN  1.05144754E+07
END options

BEGIN dimensions
  NLAY  40
  NROW  192
  NCOL  215
END dimensions

BEGIN griddata
  delr
    CONSTANT      10.00000000
  delc
    CONSTANT      10.00000000
  top
    OPEN/CLOSE  'arrays\top.bin'  FACTOR  1.0  (BINARY)  IPRN  0
  botm  LAYERED
    OPEN/CLOSE  'arrays\botm_L1.bin'  FACTOR  1.0  (BINARY)  IPRN  0
    OPEN/CLOSE  'arrays\botm_L2.bin'  FACTOR  1.0  (BINARY)  IPRN  0
    OPEN/CLOSE  'arrays\botm_L3.bin'  FACTOR  1.0  (BINARY)  IPRN  0
    OPEN/CLOSE  'arrays\botm_L4.bin'  FACTOR  1.0  (BINARY)  IPRN  0
    OPEN/CLOSE  'arrays\botm_L5.bin'  FACTOR  1.0  (BINARY)  IPRN  0
    OPEN/CLOSE  'arrays\botm_L6.bin'  FACTOR  1.0  (BINARY)  IPRN  0
    OPEN/CLOSE  'arrays\botm_L7.bin'  FACTOR  1.0  (BINARY)  IPRN  0
    OPEN/CLOSE  'arrays\botm_L8.bin'  FACTOR  1.0  (BINARY)  IPRN  0
    OPEN/CLOSE  'arrays\botm_L9.bin'  FACTOR  1.0  (BINARY)  IPRN  0
    OPEN/CLOSE  'arrays\botm_L10.bin'  FACTOR  1.0  (BINARY)  IPRN  0
    OPEN/CLOSE  'arrays\botm_L11.bin'  FACTOR  1.0  (BINARY)  IPRN  0
    OPEN/CLOSE  'arrays\botm_L12.bin'  FACTOR  1.0  (BINARY)  IPRN  0
    OPEN/CLOSE  'arrays\botm_L13.bin'  FACTOR  1.0  (BINARY)  IPRN  0
    OPEN/CLOSE  'arrays\botm_L14.bin'  FACTOR  1.0  (BINARY)  IPRN  0
    OPEN/CLOSE  'arrays\botm_L15.bin'  FACTOR  1.0  (BINARY)  IPRN  0
    OPEN/CLOSE  'arrays\botm_L16.bin'  FACTOR  1.0  (BINARY)  IPRN  0
    OPEN/CLOSE  'arrays\botm_L17.bin'  FACTOR  1.0  (BINARY)  IPRN  0
    OPEN/CLOSE  'arrays\botm_L18.bin'  FACTOR  1.0  (BINARY)  IPRN  0
    OPEN/CLOSE  'arrays\botm_L19.bin'  FACTOR  1.0  (BINARY)  IPRN  0
    OPEN/CLOSE  'arrays\botm_L20.bin'  FACTOR  1.0  (BINARY)  IPRN  0
    OPEN/CLOSE  'arrays\botm_L21.bin'  FACTOR  1.0  (BINARY)  IPRN  0
    OPEN/CLOSE  'arrays\botm_L22.bin'  FACTOR  1.0  (BINARY)  IPRN  0
    OPEN/CLOSE  'arrays\botm_L23.bin'  FACTOR  1.0  (BINARY)  IPRN  0
    OPEN/CLOSE  'arrays\botm_L24.bin'  FACTOR  1.0  (BINARY)  IPRN  0
    OPEN/CLOSE  'arrays\botm_L25.bin'  FACTOR  1.0  (BINARY)  IPRN  0
    OPEN/CLOSE  'arrays\botm_L26.bin'  FACTOR  1.0  (BINARY)  IPRN  0
    OPEN/CLOSE  'arrays\botm_L27.bin'  FACTOR  1.0  (BINARY)  IPRN  0
    OPEN/CLOSE  'arrays\botm_L28.bin'  FACTOR  1.0  (BINARY)  IPRN  0
    OPEN/CLOSE  'arrays\botm_L29.bin'  FACTOR  1.0  (BINARY)  IPRN  0
    OPEN/CLOSE  'arrays\botm_L30.bin'  FACTOR  1.0  (BINARY)  IPRN  0
    OPEN/CLOSE  'arrays\botm_L31.bin'  FACTOR  1.0  (BINARY)  IPRN  0
    OPEN/CLOSE  'arrays\botm_L32.bin'  FACTOR  1.0  (BINARY)  IPRN  0
    OPEN/CLOSE  'arrays\botm_L33.bin'  FACTOR  1.0  (BINARY)  IPRN  0
    OPEN/CLOSE  'arrays\botm_L34.bin'  FACTOR  1.0  (BINARY)  IPRN  0
    OPEN/CLOSE  'arrays\botm_L35.bin'  FACTOR  1.0  (BINARY)  IPRN  0
    OPEN/CLOSE  'arrays\botm_L36.bin'  FACTOR  1.0  (BINARY)  IPRN  0
    OPEN/CLOSE  'arrays\botm_L37.bin'  FACTOR  1.0  (BINARY)  IPRN  0
    OPEN/CLOSE  'arrays\botm_L38.bin'  FACTOR  1.0  (BINARY)  IPRN  0
    OPEN/CLOSE  'arrays\botm_L39.bin'  FACTOR  1.0  (BINARY)  IPRN  0
    OPEN/CLOSE  'arrays\botm_L40.bin'  FACTOR  1.0  (BINARY)  IPRN  0
  idomain  LAYERED
    OPEN/CLOSE  'arrays\idomain_L1.bin'  FACTOR  1  (BINARY)  IPRN  0
    OPEN/CLOSE  'arrays\idomain_L2.bin'  FACTOR  1  (BINARY)  IPRN  0
    OPEN/CLOSE  'arrays\idomain_L3.bin'  FACTOR  1  (BINARY)  IPRN  0
    OPEN/CLOSE  'arrays\idomain_L4.bin'  FACTOR  1  (BINARY)  IPRN  0
    OPEN/CLOSE  'arrays\idomain_L5.bin'  FACTOR  1  (BINARY)  IPRN  0
    OPEN/CLOSE  'arrays\idomain_L6.bin'  FACTOR  1  (BINARY)  IPRN  0
    OPEN/CLOSE  'arrays\idomain_L7.bin'  FACTOR  1  (BINARY)  IPRN  0
    OPEN/CLOSE  'arrays\idomain_L8.bin'  FACTOR  1  (BINARY)  IPRN  0
    OPEN/CLOSE  'arrays\idomain_L9.bin'  FACTOR  1  (BINARY)  IPRN  0
    OPEN/CLOSE  'arrays\idomain_L10.bin'  FACTOR  1  (BINARY)  IPRN  0
    OPEN/CLOSE  'arrays\idomain_L11.bin'  FACTOR  1  (BINARY)  IPRN  0
    OPEN/CLOSE  'arrays\idomain_L12.bin'  FACTOR  1  (BINARY)  IPRN  0
    OPEN/CLOSE  'arrays\idomain_L13.bin'  FACTOR  1  (BINARY)  IPRN  0
    OPEN/CLOSE  'arrays\idomain_L14.bin'  FACTOR  1  (BINARY)  IPRN  0
    OPEN/CLOSE  'arrays\idomain_L15.bin'  FACTOR  1  (BINARY)  IPRN  0
    OPEN/CLOSE  'arrays\idomain_L16.bin'  FACTOR  1  (BINARY)  IPRN  0
    OPEN/CLOSE  'arrays\idomain_L17.bin'  FACTOR  1  (BINARY)  IPRN  0
    OPEN/CLOSE  'arrays\idomain_L18.bin'  FACTOR  1  (BINARY)  IPRN  0
    OPEN/CLOSE  'arrays\idomain_L19.bin'  FACTOR  1  (BINARY)  IPRN  0
    OPEN/CLOSE  'arrays\idomain_L20.bin'  FACTOR  1  (BINARY)  IPRN  0
    OPEN/CLOSE  'arrays\idomain_L21.bin'  FACTOR  1  (BINARY)  IPRN  0
    OPEN/CLOSE  'arrays\idomain_L22.bin'  FACTOR  1  (BINARY)  IPRN  0
    OPEN/CLOSE  'arrays\idomain_L23.bin'  FACTOR  1  (BINARY)  IPRN  0
    OPEN/CLOSE  'arrays\idomain_L24.bin'  FACTOR  1  (BINARY)  IPRN  0
    OPEN/CLOSE  'arrays\idomain_L25.bin'  FACTOR  1  (BINARY)  IPRN  0
    OPEN/CLOSE  'arrays\idomain_L26.bin'  FACTOR  1  (BINARY)  IPRN  0
    OPEN/CLOSE  'arrays\idomain_L27.bin'  FACTOR  1  (BINARY)  IPRN  0
    OPEN/CLOSE  'arrays\idomain_L28.bin'  FACTOR  1  (BINARY)  IPRN  0
    OPEN/CLOSE  'arrays\idomain_L29.bin'  FACTOR  1  (BINARY)  IPRN  0
    OPEN/CLOSE  'arrays\idomain_L30.bin'  FACTOR  1  (BINARY)  IPRN  0
    OPEN/CLOSE  'arrays\idomain_L31.bin'  FACTOR  1  (BINARY)  IPRN  0
    OPEN/CLOSE  'arrays\idomain_L32.bin'  FACTOR  1  (BINARY)  IPRN  0
    OPEN/CLOSE  'arrays\idomain_L33.bin'  FACTOR  1  (BINARY)  IPRN  0
    OPEN/CLOSE  'arrays\idomain_L34.bin'  FACTOR  1  (BINARY)  IPRN  0
    OPEN/CLOSE  'arrays\idomain_L35.bin'  FACTOR  1  (BINARY)  IPRN  0
    OPEN/CLOSE  'arrays\idomain_L36.bin'  FACTOR  1  (BINARY)  IPRN  0
    OPEN/CLOSE  'arrays\idomain_L37.bin'  FACTOR  1  (BINARY)  IPRN  0
    OPEN/CLOSE  'arrays\idomain_L38.bin'  FACTOR  1  (BINARY)  IPRN  0
    OPEN/CLOSE  'arrays\idomain_L39.bin'  FACTOR  1  (BINARY)  IPRN  0
    OPEN/CLOSE  'arrays\idomain_L40.bin'  FACTOR  1  (BINARY)  IPRN  0
END griddata

