# File generated by Flopy version 3.9.3 on 09/15/2025 at 01:52:58.
BEGIN options
  auxiliary  IFACE
  SAVE_FLOWS
END options

BEGIN dimensions
  MAXBOUND  319
END dimensions

BEGIN period  1
  1 66 134 1.60078430E+03 6
  1 66 135 1.60077991E+03 6
  1 66 136 1.60077673E+03 6
  1 66 137 1.60077441E+03 6
  1 67 133 1.60081592E+03 6
  1 67 134 1.60079688E+03 6
  1 67 135 1.60078662E+03 6
  1 67 136 1.60078040E+03 6
  1 67 137 1.60077612E+03 6
  1 67 138 1.60077319E+03 6
  1 68 132 1.60087219E+03 6
  1 68 133 1.60084241E+03 6
  1 68 134 1.60081421E+03 6
  1 68 135 1.60079602E+03 6
  1 68 136 1.60078406E+03 6
  1 69 124 1.60123999E+03 6
  1 69 125 1.60123987E+03 6
  1 69 126 1.60123950E+03 6
  1 69 131 1.60091455E+03 6
  1 69 132 1.60089514E+03 6
  1 69 133 1.60086658E+03 6
  1 69 134 1.60083423E+03 6
  1 70 123 1.60124048E+03 6
  1 70 124 1.60124023E+03 6
  1 70 125 1.60123987E+03 6
  1 70 126 1.60123950E+03 6
  1 70 127 1.60123926E+03 6
  1 70 131 1.60095911E+03 6
  1 70 132 1.60092468E+03 6
  1 70 133 1.60089087E+03 6
  1 71 123 1.60124146E+03 6
  1 71 124 1.60124072E+03 6
  1 71 125 1.60123987E+03 6
  1 71 126 1.60123926E+03 6
  1 71 127 1.60123840E+03 6
  1 71 130 1.60109680E+03 6
  1 71 131 1.60102747E+03 6
  1 72 122 1.60124438E+03 6
  1 72 123 1.60124292E+03 6
  1 72 124 1.60124170E+03 6
  1 72 125 1.60124048E+03 6
  1 72 126 1.60123914E+03 6
  1 72 127 1.60123682E+03 6
  1 72 128 1.60122925E+03 6
  1 72 129 1.60120508E+03 6
  1 72 130 1.60116077E+03 6
  1 73 122 1.60124707E+03 6
  1 73 123 1.60124500E+03 6
  1 73 124 1.60124304E+03 6
  1 73 125 1.60124133E+03 6
  1 73 126 1.60123962E+03 6
  1 73 127 1.60123669E+03 6
  1 73 128 1.60123096E+03 6
  1 73 129 1.60121912E+03 6
  1 73 130 1.60119678E+03 6
  1 74 121 1.60125122E+03 6
  1 74 122 1.60124927E+03 6
  1 74 123 1.60124719E+03 6
  1 74 124 1.60124512E+03 6
  1 74 125 1.60124292E+03 6
  1 74 126 1.60124072E+03 6
  1 74 127 1.60123853E+03 6
  1 74 128 1.60123535E+03 6
  1 74 129 1.60123096E+03 6
  1 75 120 1.60125562E+03 6
  1 75 121 1.60125342E+03 6
  1 75 122 1.60125146E+03 6
  1 75 123 1.60124951E+03 6
  1 75 124 1.60124731E+03 6
  1 75 125 1.60124500E+03 6
  1 75 126 1.60124268E+03 6
  1 75 127 1.60124072E+03 6
  1 75 128 1.60123889E+03 6
  1 75 129 1.60123767E+03 6
  1 76 119 1.60125928E+03 6
  1 76 120 1.60125830E+03 6
  1 76 121 1.60125586E+03 6
  1 76 122 1.60125391E+03 6
  1 76 123 1.60125195E+03 6
  1 76 124 1.60124976E+03 6
  1 76 125 1.60124731E+03 6
  1 76 126 1.60124487E+03 6
  1 76 127 1.60124268E+03 6
  1 76 128 1.60124097E+03 6
  1 77 119 1.60126392E+03 6
  1 77 120 1.60126123E+03 6
  1 77 121 1.60125854E+03 6
  1 77 122 1.60125659E+03 6
  1 77 123 1.60125464E+03 6
  1 77 124 1.60125244E+03 6
  1 77 125 1.60125000E+03 6
  1 77 126 1.60124731E+03 6
  1 77 127 1.60124500E+03 6
  1 77 128 1.60124255E+03 6
  1 78 119 1.60127185E+03 6
  1 78 120 1.60126721E+03 6
  1 78 121 1.60126233E+03 6
  1 78 122 1.60125977E+03 6
  1 78 123 1.60125745E+03 6
  1 78 124 1.60125525E+03 6
  1 78 125 1.60125305E+03 6
  1 78 126 1.60125024E+03 6
  1 78 127 1.60124731E+03 6
  1 78 128 1.60124512E+03 6
  1 79 118 1.60128711E+03 6
  1 79 119 1.60128113E+03 6
  1 79 120 1.60127490E+03 6
  1 79 121 1.60126782E+03 6
  1 79 122 1.60126379E+03 6
  1 79 123 1.60126074E+03 6
  1 79 124 1.60125830E+03 6
  1 79 125 1.60125635E+03 6
  1 79 126 1.60125354E+03 6
  1 80 117 1.60131323E+03 6
  1 80 118 1.60130859E+03 6
  1 80 119 1.60130066E+03 6
  1 80 120 1.60129199E+03 6
  1 80 121 1.60128076E+03 6
  1 80 122 1.60127344E+03 6
  1 80 123 1.60126721E+03 6
  1 80 124 1.60126331E+03 6
  1 80 125 1.60126074E+03 6
  1 81 117 1.60132861E+03 6
  1 81 118 1.60132556E+03 6
  1 81 119 1.60131775E+03 6
  1 81 120 1.60130908E+03 6
  1 81 121 1.60129578E+03 6
  1 81 122 1.60128540E+03 6
  1 81 123 1.60127600E+03 6
  1 81 124 1.60126868E+03 6
  1 81 125 1.60126404E+03 6
  1 82 117 1.60134619E+03 6
  1 82 118 1.60134155E+03 6
  1 82 119 1.60133484E+03 6
  1 82 120 1.60132629E+03 6
  1 82 121 1.60131262E+03 6
  1 82 122 1.60130054E+03 6
  1 82 123 1.60128833E+03 6
  1 82 124 1.60127771E+03 6
  1 83 117 1.60136426E+03 6
  1 83 118 1.60135901E+03 6
  1 83 119 1.60135217E+03 6
  1 83 120 1.60134375E+03 6
  1 83 121 1.60132910E+03 6
  1 83 122 1.60131604E+03 6
  1 83 123 1.60130115E+03 6
  1 84 116 1.60138208E+03 6
  1 84 117 1.60138049E+03 6
  1 84 118 1.60137671E+03 6
  1 84 119 1.60137024E+03 6
  1 84 120 1.60136133E+03 6
  1 84 121 1.60134692E+03 6
  1 84 122 1.60133154E+03 6
  1 85 117 1.60139893E+03 6
  1 85 118 1.60139648E+03 6
  1 85 119 1.60138977E+03 6
  1 85 120 1.60137976E+03 6
  1 85 121 1.60136426E+03 6
  1 86 117 1.60142261E+03 6
  1 86 118 1.60142017E+03 6
  1 86 119 1.60141235E+03 6
  1 86 120 1.60140063E+03 6
  1 87 117 1.60145361E+03 6
  1 87 118 1.60144995E+03 6
  1 87 119 1.60143921E+03 6
  1 87 120 1.60142407E+03 6
  1 88 117 1.60149451E+03 6
  1 88 118 1.60148730E+03 6
  1 88 119 1.60147095E+03 6
  1 89 117 1.60153516E+03 6
  1 89 118 1.60153088E+03 6
  1 89 119 1.60151538E+03 6
  1 90 117 1.60157703E+03 6
  1 90 118 1.60157715E+03 6
  1 91 117 1.60162927E+03 6
  1 91 118 1.60162561E+03 6
  1 92 117 1.60168884E+03 6
  1 92 118 1.60168530E+03 6
  1 93 117 1.60176257E+03 6
  1 93 118 1.60176086E+03 6
  1 94 117 1.60182544E+03 6
  1 94 118 1.60183386E+03 6
  1 95 117 1.60206055E+03 6
  1 95 118 1.60208997E+03 6
  1 96 117 1.60232654E+03 6
  1 96 118 1.60236646E+03 6
  1 97 116 1.60264966E+03 6
  1 97 117 1.60262671E+03 6
  1 97 118 1.60265649E+03 6
  1 97 119 1.60278625E+03 6
  1 98 116 1.60269604E+03 6
  1 98 117 1.60275085E+03 6
  1 98 118 1.60283154E+03 6
  1 98 119 1.60288477E+03 6
  1 99 116 1.60269934E+03 6
  1 99 118 1.60302710E+03 6
  1 99 119 1.60304468E+03 6
  1 100 115 1.60269922E+03 6
  1 100 118 1.60321619E+03 6
  1 100 119 1.60323340E+03 6
  1 101 118 1.60336011E+03 6
  1 101 119 1.60337183E+03 6
  1 102 118 1.60347412E+03 6
  1 102 119 1.60346509E+03 6
  1 103 118 1.60352563E+03 6
  1 103 119 1.60352710E+03 6
  1 104 118 1.60361279E+03 6
  1 104 119 1.60362512E+03 6
  1 105 118 1.60380066E+03 6
  1 105 119 1.60382471E+03 6
  1 106 118 1.60421741E+03 6
  1 106 119 1.60422900E+03 6
  1 107 118 1.60448816E+03 6
  1 107 119 1.60447815E+03 6
  1 108 118 1.60464209E+03 6
  1 108 119 1.60461926E+03 6
  1 109 117 1.60471533E+03 6
  1 109 118 1.60469885E+03 6
  1 109 119 1.60468787E+03 6
  1 109 120 1.60469153E+03 6
  1 110 115 1.60474536E+03 6
  1 110 116 1.60474097E+03 6
  1 110 117 1.60473218E+03 6
  1 110 118 1.60472314E+03 6
  1 110 119 1.60471802E+03 6
  1 110 120 1.60471436E+03 6
  1 111 114 1.60474976E+03 6
  1 111 115 1.60474768E+03 6
  1 111 116 1.60474463E+03 6
  1 111 117 1.60474048E+03 6
  1 111 118 1.60473633E+03 6
  1 111 119 1.60473376E+03 6
  1 111 120 1.60473291E+03 6
  1 112 106 1.60476611E+03 6
  1 112 114 1.60475159E+03 6
  1 112 115 1.60475012E+03 6
  1 112 116 1.60474792E+03 6
  1 112 117 1.60474585E+03 6
  1 112 118 1.60474377E+03 6
  1 112 119 1.60474268E+03 6
  1 113 104 1.60476636E+03 6
  1 113 105 1.60476624E+03 6
  1 113 106 1.60476611E+03 6
  1 113 107 1.60476611E+03 6
  1 113 113 1.60475513E+03 6
  1 113 114 1.60475378E+03 6
  1 113 115 1.60475244E+03 6
  1 113 116 1.60475110E+03 6
  1 113 117 1.60474963E+03 6
  1 113 118 1.60474878E+03 6
  1 113 119 1.60474854E+03 6
  1 114 104 1.60476624E+03 6
  1 114 105 1.60476624E+03 6
  1 114 106 1.60476611E+03 6
  1 114 107 1.60476611E+03 6
  1 114 108 1.60476575E+03 6
  1 114 109 1.60476538E+03 6
  1 114 111 1.60476233E+03 6
  1 114 112 1.60476025E+03 6
  1 114 113 1.60475830E+03 6
  1 114 114 1.60475684E+03 6
  1 114 115 1.60475562E+03 6
  1 114 116 1.60475452E+03 6
  1 114 117 1.60475354E+03 6
  1 114 118 1.60475293E+03 6
  1 114 119 1.60475281E+03 6
  1 114 120 1.60475305E+03 6
  1 115 106 1.60476611E+03 6
  1 115 107 1.60476611E+03 6
  1 115 108 1.60476587E+03 6
  1 115 109 1.60476526E+03 6
  1 115 110 1.60476416E+03 6
  1 115 111 1.60476294E+03 6
  1 115 112 1.60476135E+03 6
  1 115 113 1.60475989E+03 6
  1 115 114 1.60475842E+03 6
  1 115 115 1.60475757E+03 6
  1 115 116 1.60475659E+03 6
  1 115 117 1.60475574E+03 6
  1 115 118 1.60475513E+03 6
  1 115 119 1.60475476E+03 6
  1 115 120 1.60475452E+03 6
  1 116 108 1.60476587E+03 6
  1 116 109 1.60476514E+03 6
  1 116 110 1.60476440E+03 6
  1 116 111 1.60476343E+03 6
  1 116 112 1.60476245E+03 6
  1 116 113 1.60476123E+03 6
  1 116 114 1.60476025E+03 6
  1 116 115 1.60475916E+03 6
  1 116 116 1.60475818E+03 6
  1 116 117 1.60475757E+03 6
  1 116 118 1.60475684E+03 6
  1 116 119 1.60475647E+03 6
  1 116 120 1.60475610E+03 6
  1 117 111 1.60476416E+03 6
  1 117 112 1.60476318E+03 6
  1 117 113 1.60476208E+03 6
  1 117 114 1.60476135E+03 6
  1 117 115 1.60476062E+03 6
  1 117 116 1.60475977E+03 6
  1 117 117 1.60475928E+03 6
  1 117 118 1.60475854E+03 6
  1 117 119 1.60475806E+03 6
  1 117 120 1.60475732E+03 6
  1 118 113 1.60476306E+03 6
  1 118 114 1.60476245E+03 6
  1 118 115 1.60476172E+03 6
  1 118 116 1.60476111E+03 6
  1 118 117 1.60476050E+03 6
  1 118 118 1.60475989E+03 6
  1 118 119 1.60475952E+03 6
  1 118 120 1.60475903E+03 6
  1 119 116 1.60476221E+03 6
  1 119 117 1.60476172E+03 6
  1 119 118 1.60476111E+03 6
  1 119 119 1.60476086E+03 6
  1 120 118 1.60476221E+03 6
  1 120 119 1.60476172E+03 6
END period  1

