# File generated by Flopy version 3.9.3 on 09/15/2025 at 01:52:58.
BEGIN options
  SAVE_FLOWS
END options

BEGIN dimensions
  MAXBOUND  6659
END dimensions

BEGIN period  1
  1 121 126 1.60515114E+03
  2 121 126 1.60515114E+03
  3 121 126 1.60515114E+03
  4 121 126 1.60515114E+03
  5 121 126 1.60515114E+03
  6 121 126 1.60515114E+03
  7 121 126 1.60515114E+03
  8 121 126 1.60515114E+03
  9 121 126 1.60515114E+03
  10 121 126 1.60515114E+03
  11 121 126 1.60515114E+03
  12 121 126 1.60515114E+03
  13 121 126 1.60515114E+03
  14 121 126 1.60515114E+03
  15 121 126 1.60515114E+03
  16 121 126 1.60515114E+03
  17 121 126 1.60515114E+03
  18 121 126 1.60515114E+03
  19 121 126 1.60515114E+03
  20 121 126 1.60515114E+03
  21 121 126 1.60515114E+03
  22 121 126 1.60515114E+03
  23 121 126 1.60515114E+03
  24 121 126 1.60515114E+03
  25 121 126 1.60515114E+03
  26 121 126 1.60515114E+03
  27 121 126 1.60515114E+03
  28 121 126 1.60515114E+03
  29 121 126 1.60515114E+03
  30 121 126 1.60515114E+03
  31 121 126 1.60515114E+03
  32 121 126 1.60515114E+03
  33 121 126 1.60515114E+03
  34 121 126 1.60515114E+03
  35 121 126 1.60515114E+03
  36 121 126 1.60515114E+03
  37 121 126 1.60515114E+03
  38 121 126 1.60515114E+03
  39 121 126 1.60515114E+03
  40 121 126 1.60515114E+03
  1 120 127 1.60507270E+03
  2 120 127 1.60507270E+03
  3 120 127 1.60507270E+03
  4 120 127 1.60507270E+03
  5 120 127 1.60507270E+03
  6 120 127 1.60507270E+03
  7 120 127 1.60507270E+03
  8 120 127 1.60507270E+03
  9 120 127 1.60507270E+03
  10 120 127 1.60507270E+03
  11 120 127 1.60507270E+03
  12 120 127 1.60507270E+03
  13 120 127 1.60507270E+03
  14 120 127 1.60507270E+03
  15 120 127 1.60507270E+03
  16 120 127 1.60507270E+03
  17 120 127 1.60507270E+03
  18 120 127 1.60507270E+03
  19 120 127 1.60507270E+03
  20 120 127 1.60507270E+03
  21 120 127 1.60507270E+03
  22 120 127 1.60507270E+03
  23 120 127 1.60507270E+03
  24 120 127 1.60507270E+03
  25 120 127 1.60507270E+03
  26 120 127 1.60507270E+03
  27 120 127 1.60507270E+03
  28 120 127 1.60507270E+03
  29 120 127 1.60507270E+03
  30 120 127 1.60507270E+03
  31 120 127 1.60507270E+03
  32 120 127 1.60507270E+03
  33 120 127 1.60507270E+03
  34 120 127 1.60507270E+03
  35 120 127 1.60507270E+03
  36 120 127 1.60507270E+03
  37 120 127 1.60507270E+03
  38 120 127 1.60507270E+03
  39 120 127 1.60507270E+03
  40 120 127 1.60507270E+03
  1 119 127 1.60499427E+03
  2 119 127 1.60499427E+03
  3 119 127 1.60499427E+03
  4 119 127 1.60499427E+03
  5 119 127 1.60499427E+03
  6 119 127 1.60499427E+03
  7 119 127 1.60499427E+03
  8 119 127 1.60499427E+03
  9 119 127 1.60499427E+03
  10 119 127 1.60499427E+03
  11 119 127 1.60499427E+03
  12 119 127 1.60499427E+03
  13 119 127 1.60499427E+03
  14 119 127 1.60499427E+03
  15 119 127 1.60499427E+03
  16 119 127 1.60499427E+03
  17 119 127 1.60499427E+03
  18 119 127 1.60499427E+03
  19 119 127 1.60499427E+03
  20 119 127 1.60499427E+03
  21 119 127 1.60499427E+03
  22 119 127 1.60499427E+03
  23 119 127 1.60499427E+03
  24 119 127 1.60499427E+03
  25 119 127 1.60499427E+03
  26 119 127 1.60499427E+03
  27 119 127 1.60499427E+03
  28 119 127 1.60499427E+03
  29 119 127 1.60499427E+03
  30 119 127 1.60499427E+03
  31 119 127 1.60499427E+03
  32 119 127 1.60499427E+03
  33 119 127 1.60499427E+03
  34 119 127 1.60499427E+03
  35 119 127 1.60499427E+03
  36 119 127 1.60499427E+03
  37 119 127 1.60499427E+03
  38 119 127 1.60499427E+03
  39 119 127 1.60499427E+03
  40 119 127 1.60499427E+03
  1 118 128 1.60491584E+03
  2 118 128 1.60491584E+03
  3 118 128 1.60491584E+03
  4 118 128 1.60491584E+03
  5 118 128 1.60491584E+03
  6 118 128 1.60491584E+03
  7 118 128 1.60491584E+03
  8 118 128 1.60491584E+03
  9 118 128 1.60491584E+03
  10 118 128 1.60491584E+03
  11 118 128 1.60491584E+03
  12 118 128 1.60491584E+03
  13 118 128 1.60491584E+03
  14 118 128 1.60491584E+03
  15 118 128 1.60491584E+03
  16 118 128 1.60491584E+03
  17 118 128 1.60491584E+03
  18 118 128 1.60491584E+03
  19 118 128 1.60491584E+03
  20 118 128 1.60491584E+03
  21 118 128 1.60491584E+03
  22 118 128 1.60491584E+03
  23 118 128 1.60491584E+03
  24 118 128 1.60491584E+03
  25 118 128 1.60491584E+03
  26 118 128 1.60491584E+03
  27 118 128 1.60491584E+03
  28 118 128 1.60491584E+03
  29 118 128 1.60491584E+03
  30 118 128 1.60491584E+03
  31 118 128 1.60491584E+03
  32 118 128 1.60491584E+03
  33 118 128 1.60491584E+03
  34 118 128 1.60491584E+03
  35 118 128 1.60491584E+03
  36 118 128 1.60491584E+03
  37 118 128 1.60491584E+03
  38 118 128 1.60491584E+03
  39 118 128 1.60491584E+03
  40 118 128 1.60491584E+03
  1 117 128 1.60483741E+03
  2 117 128 1.60483741E+03
  3 117 128 1.60483741E+03
  4 117 128 1.60483741E+03
  5 117 128 1.60483741E+03
  6 117 128 1.60483741E+03
  7 117 128 1.60483741E+03
  8 117 128 1.60483741E+03
  9 117 128 1.60483741E+03
  10 117 128 1.60483741E+03
  11 117 128 1.60483741E+03
  12 117 128 1.60483741E+03
  13 117 128 1.60483741E+03
  14 117 128 1.60483741E+03
  15 117 128 1.60483741E+03
  16 117 128 1.60483741E+03
  17 117 128 1.60483741E+03
  18 117 128 1.60483741E+03
  19 117 128 1.60483741E+03
  20 117 128 1.60483741E+03
  21 117 128 1.60483741E+03
  22 117 128 1.60483741E+03
  23 117 128 1.60483741E+03
  24 117 128 1.60483741E+03
  25 117 128 1.60483741E+03
  26 117 128 1.60483741E+03
  27 117 128 1.60483741E+03
  28 117 128 1.60483741E+03
  29 117 128 1.60483741E+03
  30 117 128 1.60483741E+03
  31 117 128 1.60483741E+03
  32 117 128 1.60483741E+03
  33 117 128 1.60483741E+03
  34 117 128 1.60483741E+03
  35 117 128 1.60483741E+03
  36 117 128 1.60483741E+03
  37 117 128 1.60483741E+03
  38 117 128 1.60483741E+03
  39 117 128 1.60483741E+03
  40 117 128 1.60483741E+03
  1 116 128 1.60475897E+03
  2 116 128 1.60475897E+03
  3 116 128 1.60475897E+03
  4 116 128 1.60475897E+03
  5 116 128 1.60475897E+03
  6 116 128 1.60475897E+03
  7 116 128 1.60475897E+03
  8 116 128 1.60475897E+03
  9 116 128 1.60475897E+03
  10 116 128 1.60475897E+03
  11 116 128 1.60475897E+03
  12 116 128 1.60475897E+03
  13 116 128 1.60475897E+03
  14 116 128 1.60475897E+03
  15 116 128 1.60475897E+03
  16 116 128 1.60475897E+03
  17 116 128 1.60475897E+03
  18 116 128 1.60475897E+03
  19 116 128 1.60475897E+03
  20 116 128 1.60475897E+03
  21 116 128 1.60475897E+03
  22 116 128 1.60475897E+03
  23 116 128 1.60475897E+03
  24 116 128 1.60475897E+03
  25 116 128 1.60475897E+03
  26 116 128 1.60475897E+03
  27 116 128 1.60475897E+03
  28 116 128 1.60475897E+03
  29 116 128 1.60475897E+03
  30 116 128 1.60475897E+03
  31 116 128 1.60475897E+03
  32 116 128 1.60475897E+03
  33 116 128 1.60475897E+03
  34 116 128 1.60475897E+03
  35 116 128 1.60475897E+03
  36 116 128 1.60475897E+03
  37 116 128 1.60475897E+03
  38 116 128 1.60475897E+03
  39 116 128 1.60475897E+03
  40 116 128 1.60475897E+03
  1 115 129 1.60468054E+03
  2 115 129 1.60468054E+03
  3 115 129 1.60468054E+03
  4 115 129 1.60468054E+03
  5 115 129 1.60468054E+03
  6 115 129 1.60468054E+03
  7 115 129 1.60468054E+03
  8 115 129 1.60468054E+03
  9 115 129 1.60468054E+03
  10 115 129 1.60468054E+03
  11 115 129 1.60468054E+03
  12 115 129 1.60468054E+03
  13 115 129 1.60468054E+03
  14 115 129 1.60468054E+03
  15 115 129 1.60468054E+03
  16 115 129 1.60468054E+03
  17 115 129 1.60468054E+03
  18 115 129 1.60468054E+03
  19 115 129 1.60468054E+03
  20 115 129 1.60468054E+03
  21 115 129 1.60468054E+03
  22 115 129 1.60468054E+03
  23 115 129 1.60468054E+03
  24 115 129 1.60468054E+03
  25 115 129 1.60468054E+03
  26 115 129 1.60468054E+03
  27 115 129 1.60468054E+03
  28 115 129 1.60468054E+03
  29 115 129 1.60468054E+03
  30 115 129 1.60468054E+03
  31 115 129 1.60468054E+03
  32 115 129 1.60468054E+03
  33 115 129 1.60468054E+03
  34 115 129 1.60468054E+03
  35 115 129 1.60468054E+03
  36 115 129 1.60468054E+03
  37 115 129 1.60468054E+03
  38 115 129 1.60468054E+03
  39 115 129 1.60468054E+03
  40 115 129 1.60468054E+03
  1 114 129 1.60460211E+03
  2 114 129 1.60460211E+03
  3 114 129 1.60460211E+03
  4 114 129 1.60460211E+03
  5 114 129 1.60460211E+03
  6 114 129 1.60460211E+03
  7 114 129 1.60460211E+03
  8 114 129 1.60460211E+03
  9 114 129 1.60460211E+03
  10 114 129 1.60460211E+03
  11 114 129 1.60460211E+03
  12 114 129 1.60460211E+03
  13 114 129 1.60460211E+03
  14 114 129 1.60460211E+03
  15 114 129 1.60460211E+03
  16 114 129 1.60460211E+03
  17 114 129 1.60460211E+03
  18 114 129 1.60460211E+03
  19 114 129 1.60460211E+03
  20 114 129 1.60460211E+03
  21 114 129 1.60460211E+03
  22 114 129 1.60460211E+03
  23 114 129 1.60460211E+03
  24 114 129 1.60460211E+03
  25 114 129 1.60460211E+03
  26 114 129 1.60460211E+03
  27 114 129 1.60460211E+03
  28 114 129 1.60460211E+03
  29 114 129 1.60460211E+03
  30 114 129 1.60460211E+03
  31 114 129 1.60460211E+03
  32 114 129 1.60460211E+03
  33 114 129 1.60460211E+03
  34 114 129 1.60460211E+03
  35 114 129 1.60460211E+03
  36 114 129 1.60460211E+03
  37 114 129 1.60460211E+03
  38 114 129 1.60460211E+03
  39 114 129 1.60460211E+03
  40 114 129 1.60460211E+03
  1 113 130 1.60452368E+03
  2 113 130 1.60452368E+03
  3 113 130 1.60452368E+03
  4 113 130 1.60452368E+03
  5 113 130 1.60452368E+03
  6 113 130 1.60452368E+03
  7 113 130 1.60452368E+03
  8 113 130 1.60452368E+03
  9 113 130 1.60452368E+03
  10 113 130 1.60452368E+03
  11 113 130 1.60452368E+03
  12 113 130 1.60452368E+03
  13 113 130 1.60452368E+03
  14 113 130 1.60452368E+03
  15 113 130 1.60452368E+03
  16 113 130 1.60452368E+03
  17 113 130 1.60452368E+03
  18 113 130 1.60452368E+03
  19 113 130 1.60452368E+03
  20 113 130 1.60452368E+03
  21 113 130 1.60452368E+03
  22 113 130 1.60452368E+03
  23 113 130 1.60452368E+03
  24 113 130 1.60452368E+03
  25 113 130 1.60452368E+03
  26 113 130 1.60452368E+03
  27 113 130 1.60452368E+03
  28 113 130 1.60452368E+03
  29 113 130 1.60452368E+03
  30 113 130 1.60452368E+03
  31 113 130 1.60452368E+03
  32 113 130 1.60452368E+03
  33 113 130 1.60452368E+03
  34 113 130 1.60452368E+03
  35 113 130 1.60452368E+03
  36 113 130 1.60452368E+03
  37 113 130 1.60452368E+03
  38 113 130 1.60452368E+03
  39 113 130 1.60452368E+03
  40 113 130 1.60452368E+03
  1 112 130 1.60444524E+03
  2 112 130 1.60444524E+03
  3 112 130 1.60444524E+03
  4 112 130 1.60444524E+03
  5 112 130 1.60444524E+03
  6 112 130 1.60444524E+03
  7 112 130 1.60444524E+03
  8 112 130 1.60444524E+03
  9 112 130 1.60444524E+03
  10 112 130 1.60444524E+03
  11 112 130 1.60444524E+03
  12 112 130 1.60444524E+03
  13 112 130 1.60444524E+03
  14 112 130 1.60444524E+03
  15 112 130 1.60444524E+03
  16 112 130 1.60444524E+03
  17 112 130 1.60444524E+03
  18 112 130 1.60444524E+03
  19 112 130 1.60444524E+03
  20 112 130 1.60444524E+03
  21 112 130 1.60444524E+03
  22 112 130 1.60444524E+03
  23 112 130 1.60444524E+03
  24 112 130 1.60444524E+03
  25 112 130 1.60444524E+03
  26 112 130 1.60444524E+03
  27 112 130 1.60444524E+03
  28 112 130 1.60444524E+03
  29 112 130 1.60444524E+03
  30 112 130 1.60444524E+03
  31 112 130 1.60444524E+03
  32 112 130 1.60444524E+03
  33 112 130 1.60444524E+03
  34 112 130 1.60444524E+03
  35 112 130 1.60444524E+03
  36 112 130 1.60444524E+03
  37 112 130 1.60444524E+03
  38 112 130 1.60444524E+03
  39 112 130 1.60444524E+03
  40 112 130 1.60444524E+03
  1 111 130 1.60436681E+03
  2 111 130 1.60436681E+03
  3 111 130 1.60436681E+03
  4 111 130 1.60436681E+03
  5 111 130 1.60436681E+03
  6 111 130 1.60436681E+03
  7 111 130 1.60436681E+03
  8 111 130 1.60436681E+03
  9 111 130 1.60436681E+03
  10 111 130 1.60436681E+03
  11 111 130 1.60436681E+03
  12 111 130 1.60436681E+03
  13 111 130 1.60436681E+03
  14 111 130 1.60436681E+03
  15 111 130 1.60436681E+03
  16 111 130 1.60436681E+03
  17 111 130 1.60436681E+03
  18 111 130 1.60436681E+03
  19 111 130 1.60436681E+03
  20 111 130 1.60436681E+03
  21 111 130 1.60436681E+03
  22 111 130 1.60436681E+03
  23 111 130 1.60436681E+03
  24 111 130 1.60436681E+03
  25 111 130 1.60436681E+03
  26 111 130 1.60436681E+03
  27 111 130 1.60436681E+03
  28 111 130 1.60436681E+03
  29 111 130 1.60436681E+03
  30 111 130 1.60436681E+03
  31 111 130 1.60436681E+03
  32 111 130 1.60436681E+03
  33 111 130 1.60436681E+03
  34 111 130 1.60436681E+03
  35 111 130 1.60436681E+03
  36 111 130 1.60436681E+03
  37 111 130 1.60436681E+03
  38 111 130 1.60436681E+03
  39 111 130 1.60436681E+03
  40 111 130 1.60436681E+03
  1 110 131 1.60428838E+03
  2 110 131 1.60428838E+03
  3 110 131 1.60428838E+03
  4 110 131 1.60428838E+03
  5 110 131 1.60428838E+03
  6 110 131 1.60428838E+03
  7 110 131 1.60428838E+03
  8 110 131 1.60428838E+03
  9 110 131 1.60428838E+03
  10 110 131 1.60428838E+03
  11 110 131 1.60428838E+03
  12 110 131 1.60428838E+03
  13 110 131 1.60428838E+03
  14 110 131 1.60428838E+03
  15 110 131 1.60428838E+03
  16 110 131 1.60428838E+03
  17 110 131 1.60428838E+03
  18 110 131 1.60428838E+03
  19 110 131 1.60428838E+03
  20 110 131 1.60428838E+03
  21 110 131 1.60428838E+03
  22 110 131 1.60428838E+03
  23 110 131 1.60428838E+03
  24 110 131 1.60428838E+03
  25 110 131 1.60428838E+03
  26 110 131 1.60428838E+03
  27 110 131 1.60428838E+03
  28 110 131 1.60428838E+03
  29 110 131 1.60428838E+03
  30 110 131 1.60428838E+03
  31 110 131 1.60428838E+03
  32 110 131 1.60428838E+03
  33 110 131 1.60428838E+03
  34 110 131 1.60428838E+03
  35 110 131 1.60428838E+03
  36 110 131 1.60428838E+03
  37 110 131 1.60428838E+03
  38 110 131 1.60428838E+03
  39 110 131 1.60428838E+03
  40 110 131 1.60428838E+03
  1 109 131 1.60420995E+03
  2 109 131 1.60420995E+03
  3 109 131 1.60420995E+03
  4 109 131 1.60420995E+03
  5 109 131 1.60420995E+03
  6 109 131 1.60420995E+03
  7 109 131 1.60420995E+03
  8 109 131 1.60420995E+03
  9 109 131 1.60420995E+03
  10 109 131 1.60420995E+03
  11 109 131 1.60420995E+03
  12 109 131 1.60420995E+03
  13 109 131 1.60420995E+03
  14 109 131 1.60420995E+03
  15 109 131 1.60420995E+03
  16 109 131 1.60420995E+03
  17 109 131 1.60420995E+03
  18 109 131 1.60420995E+03
  19 109 131 1.60420995E+03
  20 109 131 1.60420995E+03
  21 109 131 1.60420995E+03
  22 109 131 1.60420995E+03
  23 109 131 1.60420995E+03
  24 109 131 1.60420995E+03
  25 109 131 1.60420995E+03
  26 109 131 1.60420995E+03
  27 109 131 1.60420995E+03
  28 109 131 1.60420995E+03
  29 109 131 1.60420995E+03
  30 109 131 1.60420995E+03
  31 109 131 1.60420995E+03
  32 109 131 1.60420995E+03
  33 109 131 1.60420995E+03
  34 109 131 1.60420995E+03
  35 109 131 1.60420995E+03
  36 109 131 1.60420995E+03
  37 109 131 1.60420995E+03
  38 109 131 1.60420995E+03
  39 109 131 1.60420995E+03
  40 109 131 1.60420995E+03
  1 108 132 1.60413151E+03
  2 108 132 1.60413151E+03
  3 108 132 1.60413151E+03
  4 108 132 1.60413151E+03
  5 108 132 1.60413151E+03
  6 108 132 1.60413151E+03
  7 108 132 1.60413151E+03
  8 108 132 1.60413151E+03
  9 108 132 1.60413151E+03
  10 108 132 1.60413151E+03
  11 108 132 1.60413151E+03
  12 108 132 1.60413151E+03
  13 108 132 1.60413151E+03
  14 108 132 1.60413151E+03
  15 108 132 1.60413151E+03
  16 108 132 1.60413151E+03
  17 108 132 1.60413151E+03
  18 108 132 1.60413151E+03
  19 108 132 1.60413151E+03
  20 108 132 1.60413151E+03
  21 108 132 1.60413151E+03
  22 108 132 1.60413151E+03
  23 108 132 1.60413151E+03
  24 108 132 1.60413151E+03
  25 108 132 1.60413151E+03
  26 108 132 1.60413151E+03
  27 108 132 1.60413151E+03
  28 108 132 1.60413151E+03
  29 108 132 1.60413151E+03
  30 108 132 1.60413151E+03
  31 108 132 1.60413151E+03
  32 108 132 1.60413151E+03
  33 108 132 1.60413151E+03
  34 108 132 1.60413151E+03
  35 108 132 1.60413151E+03
  36 108 132 1.60413151E+03
  37 108 132 1.60413151E+03
  38 108 132 1.60413151E+03
  39 108 132 1.60413151E+03
  40 108 132 1.60413151E+03
  1 107 132 1.60405308E+03
  2 107 132 1.60405308E+03
  3 107 132 1.60405308E+03
  4 107 132 1.60405308E+03
  5 107 132 1.60405308E+03
  6 107 132 1.60405308E+03
  7 107 132 1.60405308E+03
  8 107 132 1.60405308E+03
  9 107 132 1.60405308E+03
  10 107 132 1.60405308E+03
  11 107 132 1.60405308E+03
  12 107 132 1.60405308E+03
  13 107 132 1.60405308E+03
  14 107 132 1.60405308E+03
  15 107 132 1.60405308E+03
  16 107 132 1.60405308E+03
  17 107 132 1.60405308E+03
  18 107 132 1.60405308E+03
  19 107 132 1.60405308E+03
  20 107 132 1.60405308E+03
  21 107 132 1.60405308E+03
  22 107 132 1.60405308E+03
  23 107 132 1.60405308E+03
  24 107 132 1.60405308E+03
  25 107 132 1.60405308E+03
  26 107 132 1.60405308E+03
  27 107 132 1.60405308E+03
  28 107 132 1.60405308E+03
  29 107 132 1.60405308E+03
  30 107 132 1.60405308E+03
  31 107 132 1.60405308E+03
  32 107 132 1.60405308E+03
  33 107 132 1.60405308E+03
  34 107 132 1.60405308E+03
  35 107 132 1.60405308E+03
  36 107 132 1.60405308E+03
  37 107 132 1.60405308E+03
  38 107 132 1.60405308E+03
  39 107 132 1.60405308E+03
  40 107 132 1.60405308E+03
  1 106 133 1.60397465E+03
  2 106 133 1.60397465E+03
  3 106 133 1.60397465E+03
  4 106 133 1.60397465E+03
  5 106 133 1.60397465E+03
  6 106 133 1.60397465E+03
  7 106 133 1.60397465E+03
  8 106 133 1.60397465E+03
  9 106 133 1.60397465E+03
  10 106 133 1.60397465E+03
  11 106 133 1.60397465E+03
  12 106 133 1.60397465E+03
  13 106 133 1.60397465E+03
  14 106 133 1.60397465E+03
  15 106 133 1.60397465E+03
  16 106 133 1.60397465E+03
  17 106 133 1.60397465E+03
  18 106 133 1.60397465E+03
  19 106 133 1.60397465E+03
  20 106 133 1.60397465E+03
  21 106 133 1.60397465E+03
  22 106 133 1.60397465E+03
  23 106 133 1.60397465E+03
  24 106 133 1.60397465E+03
  25 106 133 1.60397465E+03
  26 106 133 1.60397465E+03
  27 106 133 1.60397465E+03
  28 106 133 1.60397465E+03
  29 106 133 1.60397465E+03
  30 106 133 1.60397465E+03
  31 106 133 1.60397465E+03
  32 106 133 1.60397465E+03
  33 106 133 1.60397465E+03
  34 106 133 1.60397465E+03
  35 106 133 1.60397465E+03
  36 106 133 1.60397465E+03
  37 106 133 1.60397465E+03
  38 106 133 1.60397465E+03
  39 106 133 1.60397465E+03
  40 106 133 1.60397465E+03
  1 105 133 1.60389622E+03
  2 105 133 1.60389622E+03
  3 105 133 1.60389622E+03
  4 105 133 1.60389622E+03
  5 105 133 1.60389622E+03
  6 105 133 1.60389622E+03
  7 105 133 1.60389622E+03
  8 105 133 1.60389622E+03
  9 105 133 1.60389622E+03
  10 105 133 1.60389622E+03
  11 105 133 1.60389622E+03
  12 105 133 1.60389622E+03
  13 105 133 1.60389622E+03
  14 105 133 1.60389622E+03
  15 105 133 1.60389622E+03
  16 105 133 1.60389622E+03
  17 105 133 1.60389622E+03
  18 105 133 1.60389622E+03
  19 105 133 1.60389622E+03
  20 105 133 1.60389622E+03
  21 105 133 1.60389622E+03
  22 105 133 1.60389622E+03
  23 105 133 1.60389622E+03
  24 105 133 1.60389622E+03
  25 105 133 1.60389622E+03
  26 105 133 1.60389622E+03
  27 105 133 1.60389622E+03
  28 105 133 1.60389622E+03
  29 105 133 1.60389622E+03
  30 105 133 1.60389622E+03
  31 105 133 1.60389622E+03
  32 105 133 1.60389622E+03
  33 105 133 1.60389622E+03
  34 105 133 1.60389622E+03
  35 105 133 1.60389622E+03
  36 105 133 1.60389622E+03
  37 105 133 1.60389622E+03
  38 105 133 1.60389622E+03
  39 105 133 1.60389622E+03
  40 105 133 1.60389622E+03
  1 104 133 1.60381778E+03
  2 104 133 1.60381778E+03
  3 104 133 1.60381778E+03
  4 104 133 1.60381778E+03
  5 104 133 1.60381778E+03
  6 104 133 1.60381778E+03
  7 104 133 1.60381778E+03
  8 104 133 1.60381778E+03
  9 104 133 1.60381778E+03
  10 104 133 1.60381778E+03
  11 104 133 1.60381778E+03
  12 104 133 1.60381778E+03
  13 104 133 1.60381778E+03
  14 104 133 1.60381778E+03
  15 104 133 1.60381778E+03
  16 104 133 1.60381778E+03
  17 104 133 1.60381778E+03
  18 104 133 1.60381778E+03
  19 104 133 1.60381778E+03
  20 104 133 1.60381778E+03
  21 104 133 1.60381778E+03
  22 104 133 1.60381778E+03
  23 104 133 1.60381778E+03
  24 104 133 1.60381778E+03
  25 104 133 1.60381778E+03
  26 104 133 1.60381778E+03
  27 104 133 1.60381778E+03
  28 104 133 1.60381778E+03
  29 104 133 1.60381778E+03
  30 104 133 1.60381778E+03
  31 104 133 1.60381778E+03
  32 104 133 1.60381778E+03
  33 104 133 1.60381778E+03
  34 104 133 1.60381778E+03
  35 104 133 1.60381778E+03
  36 104 133 1.60381778E+03
  37 104 133 1.60381778E+03
  38 104 133 1.60381778E+03
  39 104 133 1.60381778E+03
  40 104 133 1.60381778E+03
  1 103 134 1.60373935E+03
  2 103 134 1.60373935E+03
  3 103 134 1.60373935E+03
  4 103 134 1.60373935E+03
  5 103 134 1.60373935E+03
  6 103 134 1.60373935E+03
  7 103 134 1.60373935E+03
  8 103 134 1.60373935E+03
  9 103 134 1.60373935E+03
  10 103 134 1.60373935E+03
  11 103 134 1.60373935E+03
  12 103 134 1.60373935E+03
  13 103 134 1.60373935E+03
  14 103 134 1.60373935E+03
  15 103 134 1.60373935E+03
  16 103 134 1.60373935E+03
  17 103 134 1.60373935E+03
  18 103 134 1.60373935E+03
  19 103 134 1.60373935E+03
  20 103 134 1.60373935E+03
  21 103 134 1.60373935E+03
  22 103 134 1.60373935E+03
  23 103 134 1.60373935E+03
  24 103 134 1.60373935E+03
  25 103 134 1.60373935E+03
  26 103 134 1.60373935E+03
  27 103 134 1.60373935E+03
  28 103 134 1.60373935E+03
  29 103 134 1.60373935E+03
  30 103 134 1.60373935E+03
  31 103 134 1.60373935E+03
  32 103 134 1.60373935E+03
  33 103 134 1.60373935E+03
  34 103 134 1.60373935E+03
  35 103 134 1.60373935E+03
  36 103 134 1.60373935E+03
  37 103 134 1.60373935E+03
  38 103 134 1.60373935E+03
  39 103 134 1.60373935E+03
  40 103 134 1.60373935E+03
  1 102 134 1.60366092E+03
  2 102 134 1.60366092E+03
  3 102 134 1.60366092E+03
  4 102 134 1.60366092E+03
  5 102 134 1.60366092E+03
  6 102 134 1.60366092E+03
  7 102 134 1.60366092E+03
  8 102 134 1.60366092E+03
  9 102 134 1.60366092E+03
  10 102 134 1.60366092E+03
  11 102 134 1.60366092E+03
  12 102 134 1.60366092E+03
  13 102 134 1.60366092E+03
  14 102 134 1.60366092E+03
  15 102 134 1.60366092E+03
  16 102 134 1.60366092E+03
  17 102 134 1.60366092E+03
  18 102 134 1.60366092E+03
  19 102 134 1.60366092E+03
  20 102 134 1.60366092E+03
  21 102 134 1.60366092E+03
  22 102 134 1.60366092E+03
  23 102 134 1.60366092E+03
  24 102 134 1.60366092E+03
  25 102 134 1.60366092E+03
  26 102 134 1.60366092E+03
  27 102 134 1.60366092E+03
  28 102 134 1.60366092E+03
  29 102 134 1.60366092E+03
  30 102 134 1.60366092E+03
  31 102 134 1.60366092E+03
  32 102 134 1.60366092E+03
  33 102 134 1.60366092E+03
  34 102 134 1.60366092E+03
  35 102 134 1.60366092E+03
  36 102 134 1.60366092E+03
  37 102 134 1.60366092E+03
  38 102 134 1.60366092E+03
  39 102 134 1.60366092E+03
  40 102 134 1.60366092E+03
  1 101 135 1.60358249E+03
  2 101 135 1.60358249E+03
  3 101 135 1.60358249E+03
  4 101 135 1.60358249E+03
  5 101 135 1.60358249E+03
  6 101 135 1.60358249E+03
  7 101 135 1.60358249E+03
  8 101 135 1.60358249E+03
  9 101 135 1.60358249E+03
  10 101 135 1.60358249E+03
  11 101 135 1.60358249E+03
  12 101 135 1.60358249E+03
  13 101 135 1.60358249E+03
  14 101 135 1.60358249E+03
  15 101 135 1.60358249E+03
  16 101 135 1.60358249E+03
  17 101 135 1.60358249E+03
  18 101 135 1.60358249E+03
  19 101 135 1.60358249E+03
  20 101 135 1.60358249E+03
  21 101 135 1.60358249E+03
  22 101 135 1.60358249E+03
  23 101 135 1.60358249E+03
  24 101 135 1.60358249E+03
  25 101 135 1.60358249E+03
  26 101 135 1.60358249E+03
  27 101 135 1.60358249E+03
  28 101 135 1.60358249E+03
  29 101 135 1.60358249E+03
  30 101 135 1.60358249E+03
  31 101 135 1.60358249E+03
  32 101 135 1.60358249E+03
  33 101 135 1.60358249E+03
  34 101 135 1.60358249E+03
  35 101 135 1.60358249E+03
  36 101 135 1.60358249E+03
  37 101 135 1.60358249E+03
  38 101 135 1.60358249E+03
  39 101 135 1.60358249E+03
  40 101 135 1.60358249E+03
  1 100 135 1.60350405E+03
  2 100 135 1.60350405E+03
  3 100 135 1.60350405E+03
  4 100 135 1.60350405E+03
  5 100 135 1.60350405E+03
  6 100 135 1.60350405E+03
  7 100 135 1.60350405E+03
  8 100 135 1.60350405E+03
  9 100 135 1.60350405E+03
  10 100 135 1.60350405E+03
  11 100 135 1.60350405E+03
  12 100 135 1.60350405E+03
  13 100 135 1.60350405E+03
  14 100 135 1.60350405E+03
  15 100 135 1.60350405E+03
  16 100 135 1.60350405E+03
  17 100 135 1.60350405E+03
  18 100 135 1.60350405E+03
  19 100 135 1.60350405E+03
  20 100 135 1.60350405E+03
  21 100 135 1.60350405E+03
  22 100 135 1.60350405E+03
  23 100 135 1.60350405E+03
  24 100 135 1.60350405E+03
  25 100 135 1.60350405E+03
  26 100 135 1.60350405E+03
  27 100 135 1.60350405E+03
  28 100 135 1.60350405E+03
  29 100 135 1.60350405E+03
  30 100 135 1.60350405E+03
  31 100 135 1.60350405E+03
  32 100 135 1.60350405E+03
  33 100 135 1.60350405E+03
  34 100 135 1.60350405E+03
  35 100 135 1.60350405E+03
  36 100 135 1.60350405E+03
  37 100 135 1.60350405E+03
  38 100 135 1.60350405E+03
  39 100 135 1.60350405E+03
  40 100 135 1.60350405E+03
  1 99 135 1.60342562E+03
  2 99 135 1.60342562E+03
  3 99 135 1.60342562E+03
  4 99 135 1.60342562E+03
  5 99 135 1.60342562E+03
  6 99 135 1.60342562E+03
  7 99 135 1.60342562E+03
  8 99 135 1.60342562E+03
  9 99 135 1.60342562E+03
  10 99 135 1.60342562E+03
  11 99 135 1.60342562E+03
  12 99 135 1.60342562E+03
  13 99 135 1.60342562E+03
  14 99 135 1.60342562E+03
  15 99 135 1.60342562E+03
  16 99 135 1.60342562E+03
  17 99 135 1.60342562E+03
  18 99 135 1.60342562E+03
  19 99 135 1.60342562E+03
  20 99 135 1.60342562E+03
  21 99 135 1.60342562E+03
  22 99 135 1.60342562E+03
  23 99 135 1.60342562E+03
  24 99 135 1.60342562E+03
  25 99 135 1.60342562E+03
  26 99 135 1.60342562E+03
  27 99 135 1.60342562E+03
  28 99 135 1.60342562E+03
  29 99 135 1.60342562E+03
  30 99 135 1.60342562E+03
  31 99 135 1.60342562E+03
  32 99 135 1.60342562E+03
  33 99 135 1.60342562E+03
  34 99 135 1.60342562E+03
  35 99 135 1.60342562E+03
  36 99 135 1.60342562E+03
  37 99 135 1.60342562E+03
  38 99 135 1.60342562E+03
  39 99 135 1.60342562E+03
  40 99 135 1.60342562E+03
  1 98 136 1.60334719E+03
  2 98 136 1.60334719E+03
  3 98 136 1.60334719E+03
  4 98 136 1.60334719E+03
  5 98 136 1.60334719E+03
  6 98 136 1.60334719E+03
  7 98 136 1.60334719E+03
  8 98 136 1.60334719E+03
  9 98 136 1.60334719E+03
  10 98 136 1.60334719E+03
  11 98 136 1.60334719E+03
  12 98 136 1.60334719E+03
  13 98 136 1.60334719E+03
  14 98 136 1.60334719E+03
  15 98 136 1.60334719E+03
  16 98 136 1.60334719E+03
  17 98 136 1.60334719E+03
  18 98 136 1.60334719E+03
  19 98 136 1.60334719E+03
  20 98 136 1.60334719E+03
  21 98 136 1.60334719E+03
  22 98 136 1.60334719E+03
  23 98 136 1.60334719E+03
  24 98 136 1.60334719E+03
  25 98 136 1.60334719E+03
  26 98 136 1.60334719E+03
  27 98 136 1.60334719E+03
  28 98 136 1.60334719E+03
  29 98 136 1.60334719E+03
  30 98 136 1.60334719E+03
  31 98 136 1.60334719E+03
  32 98 136 1.60334719E+03
  33 98 136 1.60334719E+03
  34 98 136 1.60334719E+03
  35 98 136 1.60334719E+03
  36 98 136 1.60334719E+03
  37 98 136 1.60334719E+03
  38 98 136 1.60334719E+03
  39 98 136 1.60334719E+03
  40 98 136 1.60334719E+03
  1 97 136 1.60326875E+03
  2 97 136 1.60326875E+03
  3 97 136 1.60326875E+03
  4 97 136 1.60326875E+03
  5 97 136 1.60326875E+03
  6 97 136 1.60326875E+03
  7 97 136 1.60326875E+03
  8 97 136 1.60326875E+03
  9 97 136 1.60326875E+03
  10 97 136 1.60326875E+03
  11 97 136 1.60326875E+03
  12 97 136 1.60326875E+03
  13 97 136 1.60326875E+03
  14 97 136 1.60326875E+03
  15 97 136 1.60326875E+03
  16 97 136 1.60326875E+03
  17 97 136 1.60326875E+03
  18 97 136 1.60326875E+03
  19 97 136 1.60326875E+03
  20 97 136 1.60326875E+03
  21 97 136 1.60326875E+03
  22 97 136 1.60326875E+03
  23 97 136 1.60326875E+03
  24 97 136 1.60326875E+03
  25 97 136 1.60326875E+03
  26 97 136 1.60326875E+03
  27 97 136 1.60326875E+03
  28 97 136 1.60326875E+03
  29 97 136 1.60326875E+03
  30 97 136 1.60326875E+03
  31 97 136 1.60326875E+03
  32 97 136 1.60326875E+03
  33 97 136 1.60326875E+03
  34 97 136 1.60326875E+03
  35 97 136 1.60326875E+03
  36 97 136 1.60326875E+03
  37 97 136 1.60326875E+03
  38 97 136 1.60326875E+03
  39 97 136 1.60326875E+03
  40 97 136 1.60326875E+03
  1 96 137 1.60319032E+03
  2 96 137 1.60319032E+03
  3 96 137 1.60319032E+03
  4 96 137 1.60319032E+03
  5 96 137 1.60319032E+03
  6 96 137 1.60319032E+03
  7 96 137 1.60319032E+03
  8 96 137 1.60319032E+03
  9 96 137 1.60319032E+03
  10 96 137 1.60319032E+03
  11 96 137 1.60319032E+03
  12 96 137 1.60319032E+03
  13 96 137 1.60319032E+03
  14 96 137 1.60319032E+03
  15 96 137 1.60319032E+03
  16 96 137 1.60319032E+03
  17 96 137 1.60319032E+03
  18 96 137 1.60319032E+03
  19 96 137 1.60319032E+03
  20 96 137 1.60319032E+03
  21 96 137 1.60319032E+03
  22 96 137 1.60319032E+03
  23 96 137 1.60319032E+03
  24 96 137 1.60319032E+03
  25 96 137 1.60319032E+03
  26 96 137 1.60319032E+03
  27 96 137 1.60319032E+03
  28 96 137 1.60319032E+03
  29 96 137 1.60319032E+03
  30 96 137 1.60319032E+03
  31 96 137 1.60319032E+03
  32 96 137 1.60319032E+03
  33 96 137 1.60319032E+03
  34 96 137 1.60319032E+03
  35 96 137 1.60319032E+03
  36 96 137 1.60319032E+03
  37 96 137 1.60319032E+03
  38 96 137 1.60319032E+03
  39 96 137 1.60319032E+03
  40 96 137 1.60319032E+03
  1 95 137 1.60311189E+03
  2 95 137 1.60311189E+03
  3 95 137 1.60311189E+03
  4 95 137 1.60311189E+03
  5 95 137 1.60311189E+03
  6 95 137 1.60311189E+03
  7 95 137 1.60311189E+03
  8 95 137 1.60311189E+03
  9 95 137 1.60311189E+03
  10 95 137 1.60311189E+03
  11 95 137 1.60311189E+03
  12 95 137 1.60311189E+03
  13 95 137 1.60311189E+03
  14 95 137 1.60311189E+03
  15 95 137 1.60311189E+03
  16 95 137 1.60311189E+03
  17 95 137 1.60311189E+03
  18 95 137 1.60311189E+03
  19 95 137 1.60311189E+03
  20 95 137 1.60311189E+03
  21 95 137 1.60311189E+03
  22 95 137 1.60311189E+03
  23 95 137 1.60311189E+03
  24 95 137 1.60311189E+03
  25 95 137 1.60311189E+03
  26 95 137 1.60311189E+03
  27 95 137 1.60311189E+03
  28 95 137 1.60311189E+03
  29 95 137 1.60311189E+03
  30 95 137 1.60311189E+03
  31 95 137 1.60311189E+03
  32 95 137 1.60311189E+03
  33 95 137 1.60311189E+03
  34 95 137 1.60311189E+03
  35 95 137 1.60311189E+03
  36 95 137 1.60311189E+03
  37 95 137 1.60311189E+03
  38 95 137 1.60311189E+03
  39 95 137 1.60311189E+03
  40 95 137 1.60311189E+03
  1 94 137 1.60303346E+03