# File generated by Flopy version 3.9.3 on 09/11/2025 at 01:29:08.
BEGIN options
  SAVE_FLOWS
END options

BEGIN packages
  DIS6  gwf_model.dis  dis
  IC6  gwf_model.ic  ic
  NPF6  gwf_model.npf  npf
  CHD6  gwf_model.chd  chd_0
  OC6  gwf_model.oc  oc
END packages

