# File generated by Flopy version 3.9.3 on 09/15/2025 at 01:52:57.
BEGIN options
  PRINT_OPTION  summary
END options

BEGIN nonlinear
  OUTER_DVCLOSE  1.00000000E-04
  OUTER_MAXIMUM  200
END nonlinear

BEGIN linear
  INNER_MAXIMUM  500
  INNER_DVCLOSE  1.00000000E-04
  inner_rclose  1.00000000E-04
  LINEAR_ACCELERATION  bicgstab
  RELAXATION_FACTOR       0.97000000
END linear

