# File generated by Flopy version 3.9.3 on 09/11/2025 at 01:29:08.
BEGIN options
END options

BEGIN timing
  TDIS6  Hyporheic.tdis
END timing

BEGIN models
  gwf6  gwf_model.nam  gwf_model
END models

BEGIN exchanges
END exchanges

BEGIN solutiongroup  1
  ims6  Hyporheic.ims  gwf_model
END solutiongroup  1

